@<TRIPOS>MOLECULE
mol_data/noopt/geoms/mol2/13gf13gf13gf-.out
 32 34 0 0 0
SMALL
GASTEIGER

@<TRIPOS>ATOM
      1 C           1.1215   -0.3259    0.0002 C.ar    1  LIG1        0.0191
      2 C           0.7176    0.9721   -0.0005 C.ar    1  LIG1        0.0643
      3 C          -0.7144    0.9744    0.0003 C.ar    1  LIG1        0.1566
      4 C          -1.1226   -0.3223   -0.0003 C.ar    1  LIG1        0.1072
      5 N          -0.0018   -1.1217    0.0001 N.ar    1  LIG1       -0.3555
      6 H          -0.0034   -2.1157   -0.0003 H       1  LIG1        0.1655
      7 H           2.3167   -0.8373    0.0007 H       1  LIG1        0.0819
      8 S           1.4918    2.0164   -0.0003 S.3     1  LIG1       -0.1377
      9 H           0.7602    3.1031   -0.0002 H       1  LIG1        0.1073
     10 O          -1.4853    2.0212    0.0010 O.3     1  LIG1       -0.5035
     11 H          -2.4040    1.7426    0.0012 H       1  LIG1        0.2923
     12 C          -2.3194   -0.8299   -0.0001 C.ar    1  LIG1        0.0840
     13 C          -3.5352   -0.2220    0.0163 C.ar    1  LIG1        0.0739
     14 C          -4.5290   -1.2531    0.0088 C.ar    1  LIG1        0.1573
     15 C          -3.8768   -2.4456   -0.0136 C.ar    1  LIG1        0.1076
     16 N          -2.5238   -2.1911   -0.0187 N.ar    1  LIG1       -0.3479
     17 H          -1.8082   -2.8808   -0.0339 H       1  LIG1        0.1661
     18 S          -3.7519    1.0596    0.0366 S.3     1  LIG1       -0.1370
     19 H          -5.0423    1.2848    0.0435 H       1  LIG1        0.1073
     20 O          -5.8179   -1.0839    0.0207 O.3     1  LIG1       -0.5035
     21 H          -6.2534   -1.9394    0.0236 H       1  LIG1        0.2923
     22 C          -4.3399   -3.6602   -0.0280 C.ar    1  LIG1        0.0835
     23 C          -5.6206   -4.1159   -0.0215 C.ar    1  LIG1        0.0732
     24 C          -5.5656   -5.5467   -0.0437 C.ar    1  LIG1        0.1478
     25 C          -4.2537   -5.9024   -0.0646 C.ar    1  LIG1        0.0453
     26 N          -3.4998   -4.7505   -0.0546 N.ar    1  LIG1       -0.3555
     27 H          -2.5066   -4.7122   -0.0655 H       1  LIG1        0.1655
     28 H          -3.6986   -7.0777   -0.0891 H       1  LIG1        0.0845
     29 S          -6.6950   -3.3844    0.0022 S.3     1  LIG1       -0.1370
     30 H          -7.7513   -4.1591    0.0102 H       1  LIG1        0.1073
     31 O          -6.5807   -6.3590   -0.0444 O.3     1  LIG1       -0.5042
     32 H          -6.2654   -7.2657   -0.0446 H       1  LIG1        0.2923
@<TRIPOS>BOND
     1    28    25    1
     2    27    26    1
     3    25    26   ar
     4    25    24   ar
     5    26    22   ar
     6    32    31    1
     7    31    24    1
     8    24    23   ar
     9    17    16    1
    10    22    23   ar
    11    22    15    1
    12    23    29    1
    13    16    15   ar
    14    16    12   ar
    15    15    14   ar
    16     2     8    1
    17     2     1   ar
    18     2     3   ar
    19     4    12    1
    20     4     5   ar
    21     4     3   ar
    22     6     5    1
    23     8     9    1
    24    12    13   ar
    25     5     1   ar
    26     1     7    1
    27     3    10    1
    28    10    11    1
    29    29    30    1
    30    14    13   ar
    31    14    20    1
    32    13    18    1
    33    20    21    1
    34    18    19    1
