@<TRIPOS>MOLECULE
mol_data/noopt/geoms/mol2/13gf13gf13gf-13gf-.out
 42 45 0 0 0
SMALL
GASTEIGER

@<TRIPOS>ATOM
      1 C           1.1215   -0.3259    0.0002 C.ar    1  LIG1        0.0191
      2 C           0.7176    0.9721   -0.0005 C.ar    1  LIG1        0.0643
      3 C          -0.7144    0.9744    0.0003 C.ar    1  LIG1        0.1566
      4 C          -1.1226   -0.3223   -0.0003 C.ar    1  LIG1        0.1072
      5 N          -0.0018   -1.1217    0.0001 N.ar    1  LIG1       -0.3555
      6 H          -0.0034   -2.1157   -0.0003 H       1  LIG1        0.1655
      7 H           2.3167   -0.8373    0.0007 H       1  LIG1        0.0819
      8 S           1.4918    2.0164   -0.0003 S.3     1  LIG1       -0.1377
      9 H           0.7602    3.1031   -0.0002 H       1  LIG1        0.1073
     10 O          -1.4853    2.0212    0.0010 O.3     1  LIG1       -0.5035
     11 H          -2.4040    1.7426    0.0012 H       1  LIG1        0.2923
     12 C          -2.3194   -0.8299   -0.0001 C.ar    1  LIG1        0.0840
     13 C          -3.5352   -0.2220    0.0163 C.ar    1  LIG1        0.0739
     14 C          -4.5290   -1.2531    0.0088 C.ar    1  LIG1        0.1573
     15 C          -3.8768   -2.4456   -0.0136 C.ar    1  LIG1        0.1077
     16 N          -2.5238   -2.1911   -0.0187 N.ar    1  LIG1       -0.3479
     17 H          -1.8082   -2.8808   -0.0339 H       1  LIG1        0.1661
     18 S          -3.7519    1.0596    0.0366 S.3     1  LIG1       -0.1370
     19 H          -5.0423    1.2848    0.0435 H       1  LIG1        0.1073
     20 O          -5.8179   -1.0839    0.0207 O.3     1  LIG1       -0.5035
     21 H          -6.2534   -1.9394    0.0236 H       1  LIG1        0.2923
     22 C          -4.3399   -3.6602   -0.0280 C.ar    1  LIG1        0.0840
     23 C          -5.6206   -4.1159   -0.0215 C.ar    1  LIG1        0.0739
     24 C          -5.5656   -5.5467   -0.0437 C.ar    1  LIG1        0.1573
     25 C          -4.2537   -5.9024   -0.0646 C.ar    1  LIG1        0.1076
     26 N          -3.4998   -4.7505   -0.0546 N.ar    1  LIG1       -0.3479
     27 H          -2.5066   -4.7122   -0.0655 H       1  LIG1        0.1661
     28 S          -6.6950   -3.3844    0.0022 S.3     1  LIG1       -0.1370
     29 H          -7.7513   -4.1591    0.0102 H       1  LIG1        0.1073
     30 O          -6.5807   -6.3590   -0.0444 O.3     1  LIG1       -0.5035
     31 H          -6.2654   -7.2657   -0.0446 H       1  LIG1        0.2923
     32 C          -3.6986   -7.0777   -0.0891 C.ar    1  LIG1        0.0835
     33 C          -4.2575   -8.3168   -0.1060 C.ar    1  LIG1        0.0732
     34 C          -3.1875   -9.2682   -0.1295 C.ar    1  LIG1        0.1478
     35 C          -2.0219   -8.5687   -0.1276 C.ar    1  LIG1        0.0453
     36 N          -2.3302   -7.2272   -0.1024 N.ar    1  LIG1       -0.3555
     37 H          -1.6696   -6.4845   -0.0957 H       1  LIG1        0.1655
     38 H          -0.7896   -8.9826   -0.1440 H       1  LIG1        0.0845
     39 S          -5.5295   -8.5847   -0.1003 S.3     1  LIG1       -0.1370
     40 H          -5.7028   -9.8832   -0.0984 H       1  LIG1        0.1073
     41 O          -3.3051  -10.5628   -0.1495 O.3     1  LIG1       -0.5042
     42 H          -2.4328  -10.9637   -0.1544 H       1  LIG1        0.2923
@<TRIPOS>BOND
     1    42    41    1
     2    41    34    1
     3    38    35    1
     4    34    35   ar
     5    34    33   ar
     6    35    36   ar
     7    33    39    1
     8    33    32   ar
     9    36    37    1
    10    36    32   ar
    11    39    40    1
    12    32    25    1
    13    27    26    1
    14    25    26   ar
    15    25    24   ar
    16    26    22   ar
    17    31    30    1
    18    30    24    1
    19    24    23   ar
    20    17    16    1
    21    22    23   ar
    22    22    15    1
    23    23    28    1
    24    16    15   ar
    25    16    12   ar
    26    15    14   ar
    27     2     8    1
    28     2     1   ar
    29     2     3   ar
    30     4    12    1
    31     4     5   ar
    32     4     3   ar
    33     8     9    1
    34     6     5    1
    35    12    13   ar
    36     5     1   ar
    37     1     7    1
    38     3    10    1
    39    10    11    1
    40    28    29    1
    41    14    13   ar
    42    14    20    1
    43    13    18    1
    44    20    21    1
    45    18    19    1
