@<TRIPOS>MOLECULE
mol_data/noopt/geoms/mol2/13gf13gf-13gf-13gf.out
 42 45 0 0 0
SMALL
GASTEIGER

@<TRIPOS>ATOM
      1 C           1.1215   -0.3259    0.0002 C.ar    1  LIG1        0.0191
      2 C           0.7176    0.9721   -0.0005 C.ar    1  LIG1        0.0643
      3 C          -0.7144    0.9744    0.0003 C.ar    1  LIG1        0.1566
      4 C          -1.1226   -0.3223   -0.0003 C.ar    1  LIG1        0.1072
      5 N          -0.0018   -1.1217    0.0001 N.ar    1  LIG1       -0.3555
      6 H          -0.0034   -2.1157   -0.0003 H       1  LIG1        0.1655
      7 H           2.3167   -0.8373    0.0007 H       1  LIG1        0.0819
      8 S           1.4918    2.0164   -0.0003 S.3     1  LIG1       -0.1377
      9 H           0.7602    3.1031   -0.0002 H       1  LIG1        0.1073
     10 O          -1.4853    2.0212    0.0010 O.3     1  LIG1       -0.5035
     11 H          -2.4040    1.7426    0.0012 H       1  LIG1        0.2923
     12 C          -2.3194   -0.8299   -0.0001 C.ar    1  LIG1        0.0840
     13 C          -3.5353   -0.2219   -0.0003 C.ar    1  LIG1        0.0739
     14 C          -4.5290   -1.2530    0.0012 C.ar    1  LIG1        0.1573
     15 C          -3.8767   -2.4457    0.0005 C.ar    1  LIG1        0.1077
     16 N          -2.5238   -2.1913    0.0002 N.ar    1  LIG1       -0.3479
     17 H          -1.8081   -2.8811   -0.0004 H       1  LIG1        0.1661
     18 S          -3.7520    1.0598   -0.0003 S.3     1  LIG1       -0.1370
     19 H          -5.0425    1.2851   -0.0003 H       1  LIG1        0.1073
     20 O          -5.8180   -1.0837    0.0025 O.3     1  LIG1       -0.5035
     21 H          -6.2535   -1.9392    0.0028 H       1  LIG1        0.2923
     22 C          -4.3398   -3.6604    0.0012 C.ar    1  LIG1        0.0840
     23 C          -5.6205   -4.1161    0.0179 C.ar    1  LIG1        0.0739
     24 C          -5.5654   -5.5470    0.0109 C.ar    1  LIG1        0.1573
     25 C          -4.2536   -5.9029   -0.0115 C.ar    1  LIG1        0.1076
     26 N          -3.4998   -4.7509   -0.0171 N.ar    1  LIG1       -0.3479
     27 H          -2.5066   -4.7126   -0.0325 H       1  LIG1        0.1661
     28 S          -6.6948   -3.3844    0.0381 S.3     1  LIG1       -0.1370
     29 H          -7.7512   -4.1590    0.0449 H       1  LIG1        0.1073
     30 O          -6.5804   -6.3593    0.0232 O.3     1  LIG1       -0.5035
     31 H          -6.2651   -7.2660    0.0262 H       1  LIG1        0.2923
     32 C          -3.6985   -7.0783   -0.0256 C.ar    1  LIG1        0.0835
     33 C          -4.2572   -8.3176   -0.0188 C.ar    1  LIG1        0.0732
     34 C          -3.1873   -9.2692   -0.0408 C.ar    1  LIG1        0.1478
     35 C          -2.0219   -8.5695   -0.0617 C.ar    1  LIG1        0.0453
     36 N          -2.3303   -7.2279   -0.0520 N.ar    1  LIG1       -0.3555
     37 H          -1.6699   -6.4851   -0.0630 H       1  LIG1        0.1655
     38 H          -0.7898   -8.9835   -0.0859 H       1  LIG1        0.0845
     39 S          -5.5290   -8.5856    0.0048 S.3     1  LIG1       -0.1370
     40 H          -5.7022   -9.8840    0.0127 H       1  LIG1        0.1073
     41 O          -3.3048  -10.5639   -0.0412 O.3     1  LIG1       -0.5042
     42 H          -2.4325  -10.9648   -0.0412 H       1  LIG1        0.2923
@<TRIPOS>BOND
     1    38    35    1
     2    37    36    1
     3    35    36   ar
     4    35    34   ar
     5    36    32   ar
     6    42    41    1
     7    41    34    1
     8    34    33   ar
     9    27    26    1
    10    32    33   ar
    11    32    25    1
    12    33    39    1
    13    26    25   ar
    14    26    22   ar
    15    25    24   ar
    16     2     8    1
    17     2     1   ar
    18     2     3   ar
    19    17    16    1
    20    13    18    1
    21    13    12   ar
    22    13    14   ar
    23     8     9    1
    24     6     5    1
    25     4    12    1
    26     4     5   ar
    27     4     3   ar
    28    18    19    1
    29    12    16   ar
    30     5     1   ar
    31    16    15   ar
    32     1     7    1
    33     3    10    1
    34    15    14   ar
    35    15    22    1
    36    10    11    1
    37    14    20    1
    38    22    23   ar
    39    20    21    1
    40    39    40    1
    41    24    23   ar
    42    24    30    1
    43    23    28    1
    44    30    31    1
    45    28    29    1
