@<TRIPOS>MOLECULE
mol_data/noopt/geoms/mol2/13gf13gf-.out
 22 23 0 0 0
SMALL
GASTEIGER

@<TRIPOS>ATOM
      1 C           1.1215   -0.3259    0.0002 C.ar    1  LIG1        0.0191
      2 C           0.7176    0.9721   -0.0005 C.ar    1  LIG1        0.0643
      3 C          -0.7144    0.9744    0.0003 C.ar    1  LIG1        0.1566
      4 C          -1.1226   -0.3223   -0.0003 C.ar    1  LIG1        0.1072
      5 N          -0.0018   -1.1217    0.0001 N.ar    1  LIG1       -0.3555
      6 H          -0.0034   -2.1157   -0.0003 H       1  LIG1        0.1655
      7 H           2.3167   -0.8373    0.0007 H       1  LIG1        0.0819
      8 S           1.4918    2.0164   -0.0003 S.3     1  LIG1       -0.1377
      9 H           0.7602    3.1031   -0.0002 H       1  LIG1        0.1073
     10 O          -1.4853    2.0212    0.0010 O.3     1  LIG1       -0.5035
     11 H          -2.4040    1.7426    0.0012 H       1  LIG1        0.2923
     12 C          -2.3194   -0.8299   -0.0001 C.ar    1  LIG1        0.0835
     13 C          -3.5353   -0.2219   -0.0003 C.ar    1  LIG1        0.0732
     14 C          -4.5290   -1.2530    0.0012 C.ar    1  LIG1        0.1478
     15 C          -3.8767   -2.4457    0.0005 C.ar    1  LIG1        0.0453
     16 N          -2.5238   -2.1913    0.0002 N.ar    1  LIG1       -0.3555
     17 H          -1.8081   -2.8811   -0.0004 H       1  LIG1        0.1655
     18 H          -4.3398   -3.6604    0.0012 H       1  LIG1        0.0845
     19 S          -3.7520    1.0598   -0.0003 S.3     1  LIG1       -0.1370
     20 H          -5.0425    1.2851   -0.0003 H       1  LIG1        0.1073
     21 O          -5.8180   -1.0837    0.0025 O.3     1  LIG1       -0.5042
     22 H          -6.2535   -1.9392    0.0028 H       1  LIG1        0.2923
@<TRIPOS>BOND
     1     2     8    1
     2     2     1   ar
     3     2     3   ar
     4    17    16    1
     5    13    19    1
     6    13    12   ar
     7    13    14   ar
     8     4    12    1
     9     4     5   ar
    10     4     3   ar
    11     6     5    1
    12     8     9    1
    13    19    20    1
    14    12    16   ar
    15     5     1   ar
    16    16    15   ar
    17     1     7    1
    18     3    10    1
    19    15    14   ar
    20    15    18    1
    21    10    11    1
    22    14    21    1
    23    21    22    1
