@<TRIPOS>MOLECULE
mol_data/noopt/geoms/mol2/13gf13gf13gf.out
 32 34 0 0 0
SMALL
GASTEIGER

@<TRIPOS>ATOM
      1 C           1.1215   -0.3259    0.0002 C.ar    1  LIG1        0.0191
      2 C           0.7176    0.9721   -0.0005 C.ar    1  LIG1        0.0643
      3 C          -0.7144    0.9744    0.0003 C.ar    1  LIG1        0.1566
      4 C          -1.1226   -0.3223   -0.0003 C.ar    1  LIG1        0.1072
      5 N          -0.0018   -1.1217    0.0001 N.ar    1  LIG1       -0.3555
      6 H          -0.0034   -2.1157   -0.0003 H       1  LIG1        0.1655
      7 H           2.3167   -0.8373    0.0007 H       1  LIG1        0.0819
      8 S           1.4918    2.0164   -0.0003 S.3     1  LIG1       -0.1377
      9 H           0.7602    3.1031   -0.0002 H       1  LIG1        0.1073
     10 O          -1.4853    2.0212    0.0010 O.3     1  LIG1       -0.5035
     11 H          -2.4040    1.7426    0.0012 H       1  LIG1        0.2923
     12 C          -2.3194   -0.8299   -0.0001 C.ar    1  LIG1        0.0840
     13 C          -3.5352   -0.2220    0.0163 C.ar    1  LIG1        0.0739
     14 C          -4.5290   -1.2531    0.0088 C.ar    1  LIG1        0.1573
     15 C          -3.8768   -2.4456   -0.0136 C.ar    1  LIG1        0.1076
     16 N          -2.5238   -2.1911   -0.0187 N.ar    1  LIG1       -0.3479
     17 H          -1.8082   -2.8808   -0.0339 H       1  LIG1        0.1661
     18 S          -3.7519    1.0596    0.0366 S.3     1  LIG1       -0.1370
     19 H          -5.0423    1.2848    0.0435 H       1  LIG1        0.1073
     20 O          -5.8179   -1.0839    0.0207 O.3     1  LIG1       -0.5035
     21 H          -6.2534   -1.9394    0.0236 H       1  LIG1        0.2923
     22 C          -4.3399   -3.6602   -0.0280 C.ar    1  LIG1        0.0835
     23 C          -5.6207   -4.1157   -0.0381 C.ar    1  LIG1        0.0732
     24 C          -5.5656   -5.5466   -0.0513 C.ar    1  LIG1        0.1478
     25 C          -4.2537   -5.9026   -0.0505 C.ar    1  LIG1        0.0453
     26 N          -3.4998   -4.7508   -0.0358 N.ar    1  LIG1       -0.3555
     27 H          -2.5065   -4.7126   -0.0320 H       1  LIG1        0.1655
     28 H          -3.6986   -7.0781   -0.0599 H       1  LIG1        0.0845
     29 S          -6.6951   -3.3839   -0.0347 S.3     1  LIG1       -0.1370
     30 H          -7.7516   -4.1584   -0.0335 H       1  LIG1        0.1073
     31 O          -6.5808   -6.3587   -0.0626 O.3     1  LIG1       -0.5042
     32 H          -6.2656   -7.2655   -0.0654 H       1  LIG1        0.2923
@<TRIPOS>BOND
     1    32    31    1
     2    31    24    1
     3    28    25    1
     4    24    25   ar
     5    24    23   ar
     6    25    26   ar
     7    23    29    1
     8    23    22   ar
     9    26    27    1
    10    26    22   ar
    11    29    30    1
    12    17    16    1
    13    22    15    1
    14    16    15   ar
    15    16    12   ar
    16    15    14   ar
    17     2     8    1
    18     2     1   ar
    19     2     3   ar
    20     4    12    1
    21     4     5   ar
    22     4     3   ar
    23     6     5    1
    24     8     9    1
    25    12    13   ar
    26     5     1   ar
    27     1     7    1
    28     3    10    1
    29    10    11    1
    30    14    13   ar
    31    14    20    1
    32    13    18    1
    33    20    21    1
    34    18    19    1
