@<TRIPOS>MOLECULE
mol_data/noopt/geoms/mol2/13gf13gf.out
 22 23 0 0 0
SMALL
GASTEIGER

@<TRIPOS>ATOM
      1 C           1.1215   -0.3259    0.0002 C.ar    1  LIG1        0.0191
      2 C           0.7176    0.9721   -0.0005 C.ar    1  LIG1        0.0643
      3 C          -0.7144    0.9744    0.0003 C.ar    1  LIG1        0.1566
      4 C          -1.1226   -0.3223   -0.0003 C.ar    1  LIG1        0.1072
      5 N          -0.0018   -1.1217    0.0001 N.ar    1  LIG1       -0.3555
      6 H          -0.0034   -2.1157   -0.0003 H       1  LIG1        0.1655
      7 H           2.3167   -0.8373    0.0007 H       1  LIG1        0.0819
      8 S           1.4918    2.0164   -0.0003 S.3     1  LIG1       -0.1377
      9 H           0.7602    3.1031   -0.0002 H       1  LIG1        0.1073
     10 O          -1.4853    2.0212    0.0010 O.3     1  LIG1       -0.5035
     11 H          -2.4040    1.7426    0.0012 H       1  LIG1        0.2923
     12 C          -2.3194   -0.8299   -0.0001 C.ar    1  LIG1        0.0835
     13 C          -3.5352   -0.2220    0.0163 C.ar    1  LIG1        0.0732
     14 C          -4.5290   -1.2531    0.0088 C.ar    1  LIG1        0.1478
     15 C          -3.8768   -2.4456   -0.0136 C.ar    1  LIG1        0.0453
     16 N          -2.5238   -2.1911   -0.0187 N.ar    1  LIG1       -0.3555
     17 H          -1.8082   -2.8808   -0.0339 H       1  LIG1        0.1655
     18 H          -4.3399   -3.6602   -0.0280 H       1  LIG1        0.0845
     19 S          -3.7519    1.0596    0.0366 S.3     1  LIG1       -0.1370
     20 H          -5.0423    1.2848    0.0435 H       1  LIG1        0.1073
     21 O          -5.8179   -1.0839    0.0207 O.3     1  LIG1       -0.5042
     22 H          -6.2534   -1.9394    0.0236 H       1  LIG1        0.2923
@<TRIPOS>BOND
     1    17    16    1
     2    18    15    1
     3    16    15   ar
     4    16    12   ar
     5    15    14   ar
     6     2     8    1
     7     2     1   ar
     8     2     3   ar
     9     4    12    1
    10     4     5   ar
    11     4     3   ar
    12     6     5    1
    13     8     9    1
    14    12    13   ar
    15     5     1   ar
    16     1     7    1
    17     3    10    1
    18    10    11    1
    19    14    13   ar
    20    14    21    1
    21    13    19    1
    22    21    22    1
    23    19    20    1
