@<TRIPOS>MOLECULE
mol_data/noopt/geoms/mol2/13gf13gf13gf13gf.out
 42 45 0 0 0
SMALL
GASTEIGER

@<TRIPOS>ATOM
      1 C           1.1215   -0.3259    0.0002 C.ar    1  LIG1        0.0191
      2 C           0.7176    0.9721   -0.0005 C.ar    1  LIG1        0.0643
      3 C          -0.7144    0.9744    0.0003 C.ar    1  LIG1        0.1566
      4 C          -1.1226   -0.3223   -0.0003 C.ar    1  LIG1        0.1072
      5 N          -0.0018   -1.1217    0.0001 N.ar    1  LIG1       -0.3555
      6 H          -0.0034   -2.1157   -0.0003 H       1  LIG1        0.1655
      7 H           2.3167   -0.8373    0.0007 H       1  LIG1        0.0819
      8 S           1.4918    2.0164   -0.0003 S.3     1  LIG1       -0.1377
      9 H           0.7602    3.1031   -0.0002 H       1  LIG1        0.1073
     10 O          -1.4853    2.0212    0.0010 O.3     1  LIG1       -0.5035
     11 H          -2.4040    1.7426    0.0012 H       1  LIG1        0.2923
     12 C          -2.3194   -0.8299   -0.0001 C.ar    1  LIG1        0.0840
     13 C          -3.5352   -0.2220    0.0163 C.ar    1  LIG1        0.0739
     14 C          -4.5290   -1.2531    0.0088 C.ar    1  LIG1        0.1573
     15 C          -3.8768   -2.4456   -0.0136 C.ar    1  LIG1        0.1077
     16 N          -2.5238   -2.1911   -0.0187 N.ar    1  LIG1       -0.3479
     17 H          -1.8082   -2.8808   -0.0339 H       1  LIG1        0.1661
     18 S          -3.7519    1.0596    0.0366 S.3     1  LIG1       -0.1370
     19 H          -5.0423    1.2848    0.0435 H       1  LIG1        0.1073
     20 O          -5.8179   -1.0839    0.0207 O.3     1  LIG1       -0.5035
     21 H          -6.2534   -1.9394    0.0236 H       1  LIG1        0.2923
     22 C          -4.3399   -3.6602   -0.0280 C.ar    1  LIG1        0.0840
     23 C          -5.6207   -4.1157   -0.0381 C.ar    1  LIG1        0.0739
     24 C          -5.5656   -5.5466   -0.0513 C.ar    1  LIG1        0.1573
     25 C          -4.2537   -5.9026   -0.0505 C.ar    1  LIG1        0.1076
     26 N          -3.4998   -4.7508   -0.0358 N.ar    1  LIG1       -0.3479
     27 H          -2.5065   -4.7126   -0.0320 H       1  LIG1        0.1661
     28 S          -6.6951   -3.3839   -0.0347 S.3     1  LIG1       -0.1370
     29 H          -7.7516   -4.1584   -0.0335 H       1  LIG1        0.1073
     30 O          -6.5808   -6.3587   -0.0626 O.3     1  LIG1       -0.5035
     31 H          -6.2656   -7.2655   -0.0654 H       1  LIG1        0.2923
     32 C          -3.6985   -7.0781   -0.0599 C.ar    1  LIG1        0.0835
     33 C          -4.2572   -8.3173   -0.0500 C.ar    1  LIG1        0.0732
     34 C          -3.1873   -9.2689   -0.0673 C.ar    1  LIG1        0.1478
     35 C          -2.0218   -8.5693   -0.0887 C.ar    1  LIG1        0.0453
     36 N          -2.3303   -7.2277   -0.0838 N.ar    1  LIG1       -0.3555
     37 H          -1.6699   -6.4849   -0.0962 H       1  LIG1        0.1655
     38 H          -0.7897   -8.9833   -0.1097 H       1  LIG1        0.0845
     39 S          -5.5290   -8.5853   -0.0275 S.3     1  LIG1       -0.1370
     40 H          -5.7023   -9.8837   -0.0199 H       1  LIG1        0.1073
     41 O          -3.3047  -10.5637   -0.0637 O.3     1  LIG1       -0.5042
     42 H          -2.4324  -10.9645   -0.0628 H       1  LIG1        0.2923
@<TRIPOS>BOND
     1    38    35    1
     2    37    36    1
     3    35    36   ar
     4    35    34   ar
     5    36    32   ar
     6    34    41    1
     7    34    33   ar
     8    31    30    1
     9    41    42    1
    10    30    24    1
    11    32    25    1
    12    32    33   ar
    13    24    25   ar
    14    24    23   ar
    15    25    26   ar
    16    33    39    1
    17    23    28    1
    18    23    22   ar
    19    26    27    1
    20    26    22   ar
    21    28    29    1
    22    17    16    1
    23    22    15    1
    24    39    40    1
    25    16    15   ar
    26    16    12   ar
    27    15    14   ar
    28     2     8    1
    29     2     1   ar
    30     2     3   ar
    31     4    12    1
    32     4     5   ar
    33     4     3   ar
    34     6     5    1
    35     8     9    1
    36    12    13   ar
    37     5     1   ar
    38     1     7    1
    39     3    10    1
    40    10    11    1
    41    14    13   ar
    42    14    20    1
    43    13    18    1
    44    20    21    1
    45    18    19    1
