@<TRIPOS>MOLECULE
mol_data/noopt/geoms/mol2/13gg13gg13gg.out
 32 34 0 0 0
SMALL
GASTEIGER

@<TRIPOS>ATOM
      1 C           1.1215   -0.3259    0.0002 C.2     1  LIG1        0.0082
      2 C           0.7176    0.9721   -0.0005 C.2     1  LIG1        0.0346
      3 C          -0.7144    0.9744    0.0003 C.2     1  LIG1        0.0562
      4 C          -1.1226   -0.3223   -0.0003 C.2     1  LIG1        0.0687
      5 N          -0.0018   -1.1217    0.0001 N.pl3   1  LIG1       -0.3171
      6 H          -0.0034   -2.1157   -0.0003 H       1  LIG1        0.1517
      7 H           2.3167   -0.8373    0.0007 H       1  LIG1        0.0793
      8 S           1.4918    2.0164   -0.0003 S.3     1  LIG1       -0.1403
      9 H           0.7602    3.1031   -0.0002 H       1  LIG1        0.1072
     10 S          -1.4853    2.0211    0.0010 S.2     1  LIG1       -0.0489
     11 H          -2.7389    1.6410    0.0012 H       1  LIG1        0.0929
     12 C          -2.3194   -0.8299   -0.0001 C.2     1  LIG1        0.0640
     13 C          -3.5352   -0.2220    0.0163 C.2     1  LIG1        0.0287
     14 C          -4.5290   -1.2531    0.0088 C.2     1  LIG1        0.0425
     15 C          -3.8768   -2.4456   -0.0136 C.3     1  LIG1        0.1381
     16 N          -2.5238   -2.1911   -0.0187 N.pl3   1  LIG1       -0.3244
     17 H          -1.8082   -2.8808   -0.0339 H       1  LIG1        0.1475
     18 S          -3.7519    1.0596    0.0366 S.3     1  LIG1       -0.2050
     19 H          -5.0423    1.2848    0.0435 H       1  LIG1        0.0929
     20 S          -5.8178   -1.0839    0.0207 S.2     1  LIG1       -0.0528
     21 H          -6.4121   -2.2513    0.0247 H       1  LIG1        0.0929
     22 C          -4.3399   -3.6602   -0.0280 C.ar    1  LIG1        0.0611
     23 C          -5.6207   -4.1157   -0.0381 C.ar    1  LIG1        0.0295
     24 C          -5.5656   -5.5466   -0.0513 C.ar    1  LIG1        0.0347
     25 C          -4.2537   -5.9026   -0.0505 C.ar    1  LIG1        0.0162
     26 N          -3.4998   -4.7508   -0.0358 N.ar    1  LIG1       -0.3605
     27 H          -2.5065   -4.7126   -0.0320 H       1  LIG1        0.1652
     28 H          -3.6986   -7.0781   -0.0599 H       1  LIG1        0.0818
     29 S          -6.6951   -3.3839   -0.0347 S.3     1  LIG1       -0.2049
     30 H          -7.7516   -4.1584   -0.0335 H       1  LIG1        0.0929
     31 S          -6.5807   -6.3587   -0.0626 S.3     1  LIG1       -0.1402
     32 H          -6.1507   -7.5961   -0.0664 H       1  LIG1        0.1072
@<TRIPOS>BOND
     1    32    31    1
     2    31    24    1
     3    28    25    1
     4    24    25   ar
     5    24    23   ar
     6    25    26   ar
     7    23    29    1
     8    23    22   ar
     9    26    27    1
    10    26    22   ar
    11    29    30    1
    12    29    21    1
    13    17    16    1
    14    22    15    1
    15    16    15    1
    16    16    12    1
    17    15    14    1
    18     2     8    1
    19     2     1    2
    20     2     3    1
    21     4    12    2
    22     4     5    1
    23     4     3    1
    24     6     5    1
    25     8     9    1
    26    12    13    1
    27     5     1    1
    28     1     7    1
    29     3    10    2
    30    11    18    1
    31    14    13    1
    32    14    20    2
    33    13    18    2
    34    18    19    1
