@<TRIPOS>MOLECULE
mol_data/noopt/geoms/mol2/13gg13gg.out
 22 23 0 0 0
SMALL
GASTEIGER

@<TRIPOS>ATOM
      1 C           1.1215   -0.3259    0.0002 C.2     1  LIG1        0.0046
      2 C           0.7176    0.9721   -0.0005 C.2     1  LIG1        0.0310
      3 C          -0.7144    0.9744    0.0003 C.2     1  LIG1        0.0428
      4 C          -1.1226   -0.3223   -0.0003 C.3     1  LIG1        0.1377
      5 N          -0.0018   -1.1217    0.0001 N.pl3   1  LIG1       -0.3317
      6 H          -0.0034   -2.1157   -0.0003 H       1  LIG1        0.1469
      7 H           2.3167   -0.8373    0.0007 H       1  LIG1        0.0790
      8 S           1.4918    2.0164   -0.0003 S.3     1  LIG1       -0.1406
      9 H           0.7602    3.1031   -0.0002 H       1  LIG1        0.1072
     10 S          -1.4853    2.0211    0.0010 S.2     1  LIG1       -0.0528
     11 H          -2.7389    1.6410    0.0012 H       1  LIG1        0.0929
     12 C          -2.3194   -0.8299   -0.0001 C.ar    1  LIG1        0.0611
     13 C          -3.5352   -0.2220    0.0163 C.ar    1  LIG1        0.0295
     14 C          -4.5290   -1.2531    0.0088 C.ar    1  LIG1        0.0347
     15 C          -3.8768   -2.4456   -0.0136 C.ar    1  LIG1        0.0162
     16 N          -2.5238   -2.1911   -0.0187 N.ar    1  LIG1       -0.3605
     17 H          -1.8082   -2.8808   -0.0339 H       1  LIG1        0.1652
     18 H          -4.3399   -3.6602   -0.0280 H       1  LIG1        0.0818
     19 S          -3.7519    1.0596    0.0366 S.3     1  LIG1       -0.2049
     20 H          -5.0423    1.2848    0.0435 H       1  LIG1        0.0929
     21 S          -5.8178   -1.0839    0.0207 S.3     1  LIG1       -0.1402
     22 H          -6.4121   -2.2513    0.0247 H       1  LIG1        0.1072
@<TRIPOS>BOND
     1    17    16    1
     2    18    15    1
     3    16    15   ar
     4    16    12   ar
     5    15    14   ar
     6     2     8    1
     7     2     1    2
     8     2     3    1
     9     4    12    1
    10     4     5    1
    11     4     3    1
    12     6     5    1
    13     8     9    1
    14    12    13   ar
    15     5     1    1
    16     1     7    1
    17     3    10    2
    18    11    19    1
    19    14    13   ar
    20    14    21    1
    21    13    19    1
    22    21    22    1
    23    19    20    1
