@<TRIPOS>MOLECULE
mol_data/noopt/geoms/mol2/13gh13gh-.out
 24 25 0 0 0
SMALL
GASTEIGER

@<TRIPOS>ATOM
      1 C           1.1215   -0.3259    0.0002 C.ar    1  LIG1        0.0173
      2 C           0.7176    0.9721   -0.0005 C.ar    1  LIG1        0.0434
      3 C          -0.7144    0.9744    0.0003 C.ar    1  LIG1        0.0650
      4 C          -1.1226   -0.3223   -0.0003 C.ar    1  LIG1        0.0860
      5 N          -0.0018   -1.1217    0.0001 N.ar    1  LIG1       -0.3570
      6 H          -0.0034   -2.1157   -0.0003 H       1  LIG1        0.1655
      7 H           2.3167   -0.8373    0.0007 H       1  LIG1        0.0819
      8 S           1.4918    2.0164   -0.0003 S.3     1  LIG1       -0.1394
      9 H           0.7602    3.1031   -0.0002 H       1  LIG1        0.1072
     10 N          -1.4853    2.0212    0.0010 N.pl3   1  LIG1       -0.3554
     11 H          -1.0256    2.7740   -0.4702 H       1  LIG1        0.1424
     12 H          -2.3405    1.8056   -0.4703 H       1  LIG1        0.1424
     13 C          -2.3194   -0.8299   -0.0001 C.ar    1  LIG1        0.0799
     14 C          -3.5353   -0.2219   -0.0003 C.ar    1  LIG1        0.0522
     15 C          -4.5290   -1.2530    0.0012 C.ar    1  LIG1        0.0561
     16 C          -3.8767   -2.4457    0.0005 C.ar    1  LIG1        0.0241
     17 N          -2.5238   -2.1913    0.0002 N.ar    1  LIG1       -0.3570
     18 H          -1.8081   -2.8811   -0.0004 H       1  LIG1        0.1655
     19 H          -4.3398   -3.6604    0.0012 H       1  LIG1        0.0826
     20 S          -3.7520    1.0598   -0.0003 S.3     1  LIG1       -0.1388
     21 H          -5.0425    1.2851   -0.0003 H       1  LIG1        0.1072
     22 N          -5.8180   -1.0837    0.0025 N.pl3   1  LIG1       -0.3560
     23 H          -6.0426   -0.2307   -0.4686 H       1  LIG1        0.1424
     24 H          -6.2552   -1.8497   -0.4686 H       1  LIG1        0.1424
@<TRIPOS>BOND
     1    12    10    1
     2    11    10    1
     3    24    22    1
     4    23    22    1
     5     2     8    1
     6     2     1   ar
     7     2     3   ar
     8    18    17    1
     9    14    20    1
    10    14    13   ar
    11    14    15   ar
    12     4    13    1
    13     4     5   ar
    14     4     3   ar
    15     6     5    1
    16     8     9    1
    17    20    21    1
    18    13    17   ar
    19     5     1   ar
    20    17    16   ar
    21     1     7    1
    22     3    10    1
    23    16    15   ar
    24    16    19    1
    25    15    22    1
