@<TRIPOS>MOLECULE
mol_data/noopt/geoms/mol2/13gh13gh-13gh-.out
 35 37 0 0 0
SMALL
GASTEIGER

@<TRIPOS>ATOM
      1 C           1.1215   -0.3259    0.0002 C.ar    1  LIG1        0.0173
      2 C           0.7176    0.9721   -0.0005 C.ar    1  LIG1        0.0434
      3 C          -0.7144    0.9744    0.0003 C.ar    1  LIG1        0.0650
      4 C          -1.1226   -0.3223   -0.0003 C.ar    1  LIG1        0.0860
      5 N          -0.0018   -1.1217    0.0001 N.ar    1  LIG1       -0.3570
      6 H          -0.0034   -2.1157   -0.0003 H       1  LIG1        0.1655
      7 H           2.3167   -0.8373    0.0007 H       1  LIG1        0.0819
      8 S           1.4918    2.0164   -0.0003 S.3     1  LIG1       -0.1394
      9 H           0.7602    3.1031   -0.0002 H       1  LIG1        0.1072
     10 N          -1.4853    2.0212    0.0010 N.pl3   1  LIG1       -0.3554
     11 H          -1.0256    2.7740   -0.4702 H       1  LIG1        0.1424
     12 H          -2.3405    1.8056   -0.4703 H       1  LIG1        0.1424
     13 C          -2.3194   -0.8299   -0.0001 C.ar    1  LIG1        0.0804
     14 C          -3.5353   -0.2219   -0.0003 C.ar    1  LIG1        0.0529
     15 C          -4.5290   -1.2530    0.0012 C.ar    1  LIG1        0.0657
     16 C          -3.8767   -2.4457    0.0005 C.ar    1  LIG1        0.0865
     17 N          -2.5238   -2.1913    0.0002 N.ar    1  LIG1       -0.3494
     18 H          -1.8081   -2.8811   -0.0004 H       1  LIG1        0.1661
     19 S          -3.7520    1.0598   -0.0003 S.3     1  LIG1       -0.1388
     20 H          -5.0425    1.2851   -0.0003 H       1  LIG1        0.1072
     21 N          -5.8180   -1.0837    0.0025 N.pl3   1  LIG1       -0.3554
     22 H          -6.0426   -0.2307   -0.4686 H       1  LIG1        0.1424
     23 H          -6.2552   -1.8497   -0.4686 H       1  LIG1        0.1424
     24 C          -4.3398   -3.6604    0.0012 C.ar    1  LIG1        0.0799
     25 C          -5.6205   -4.1161    0.0179 C.ar    1  LIG1        0.0522
     26 C          -5.5654   -5.5470    0.0109 C.ar    1  LIG1        0.0561
     27 C          -4.2536   -5.9029   -0.0115 C.ar    1  LIG1        0.0241
     28 N          -3.4998   -4.7509   -0.0171 N.ar    1  LIG1       -0.3570
     29 H          -2.5066   -4.7126   -0.0325 H       1  LIG1        0.1655
     30 H          -3.6985   -7.0783   -0.0256 H       1  LIG1        0.0826
     31 S          -6.6948   -3.3844    0.0381 S.3     1  LIG1       -0.1388
     32 H          -7.7512   -4.1590    0.0449 H       1  LIG1        0.1072
     33 N          -6.5804   -6.3593    0.0232 N.pl3   1  LIG1       -0.3560
     34 H          -7.3543   -5.9328   -0.4450 H       1  LIG1        0.1424
     35 H          -6.3339   -7.2078   -0.4451 H       1  LIG1        0.1424
@<TRIPOS>BOND
     1    12    10    1
     2    11    10    1
     3    23    21    1
     4    22    21    1
     5    35    33    1
     6    34    33    1
     7    29    28    1
     8    30    27    1
     9    28    27   ar
    10    28    24   ar
    11    27    26   ar
    12     2     8    1
    13     2     1   ar
    14     2     3   ar
    15    18    17    1
    16    14    19    1
    17    14    13   ar
    18    14    15   ar
    19     4    13    1
    20     4     5   ar
    21     4     3   ar
    22     6     5    1
    23     8     9    1
    24    19    20    1
    25    13    17   ar
    26     5     1   ar
    27    17    16   ar
    28     1     7    1
    29     3    10    1
    30    16    15   ar
    31    16    24    1
    32    15    21    1
    33    24    25   ar
    34    26    25   ar
    35    26    33    1
    36    25    31    1
    37    31    32    1
