@<TRIPOS>MOLECULE
mol_data/noopt/geoms/mol2/13gh13gh.out
 24 25 0 0 0
SMALL
GASTEIGER

@<TRIPOS>ATOM
      1 C           1.1215   -0.3259    0.0002 C.ar    1  LIG1        0.0173
      2 C           0.7176    0.9721   -0.0005 C.ar    1  LIG1        0.0434
      3 C          -0.7144    0.9744    0.0003 C.ar    1  LIG1        0.0650
      4 C          -1.1226   -0.3223   -0.0003 C.ar    1  LIG1        0.0860
      5 N          -0.0018   -1.1217    0.0001 N.ar    1  LIG1       -0.3570
      6 H          -0.0034   -2.1157   -0.0003 H       1  LIG1        0.1655
      7 H           2.3167   -0.8373    0.0007 H       1  LIG1        0.0819
      8 S           1.4918    2.0164   -0.0003 S.3     1  LIG1       -0.1394
      9 H           0.7602    3.1031   -0.0002 H       1  LIG1        0.1072
     10 N          -1.4853    2.0212    0.0010 N.pl3   1  LIG1       -0.3554
     11 H          -1.0256    2.7740   -0.4702 H       1  LIG1        0.1424
     12 H          -2.3405    1.8056   -0.4703 H       1  LIG1        0.1424
     13 C          -2.3194   -0.8299   -0.0001 C.ar    1  LIG1        0.0799
     14 C          -3.5352   -0.2220    0.0163 C.ar    1  LIG1        0.0522
     15 C          -4.5290   -1.2531    0.0088 C.ar    1  LIG1        0.0561
     16 C          -3.8768   -2.4456   -0.0136 C.ar    1  LIG1        0.0241
     17 N          -2.5238   -2.1911   -0.0187 N.ar    1  LIG1       -0.3570
     18 H          -1.8082   -2.8808   -0.0339 H       1  LIG1        0.1655
     19 H          -4.3399   -3.6602   -0.0280 H       1  LIG1        0.0826
     20 S          -3.7519    1.0596    0.0366 S.3     1  LIG1       -0.1388
     21 H          -5.0423    1.2848    0.0435 H       1  LIG1        0.1072
     22 N          -5.8179   -1.0839    0.0207 N.pl3   1  LIG1       -0.3560
     23 H          -6.0463   -0.2304   -0.4477 H       1  LIG1        0.1424
     24 H          -6.2589   -1.8494   -0.4477 H       1  LIG1        0.1424
@<TRIPOS>BOND
     1    12    10    1
     2    11    10    1
     3    24    22    1
     4    23    22    1
     5    18    17    1
     6    19    16    1
     7    17    16   ar
     8    17    13   ar
     9    16    15   ar
    10     2     8    1
    11     2     1   ar
    12     2     3   ar
    13     4    13    1
    14     4     5   ar
    15     4     3   ar
    16     6     5    1
    17     8     9    1
    18    13    14   ar
    19     5     1   ar
    20     1     7    1
    21     3    10    1
    22    15    14   ar
    23    15    22    1
    24    14    20    1
    25    20    21    1
