@<TRIPOS>MOLECULE
mol_data/noopt/geoms/mol2/13gh13gh-13gh-13gh.out
 46 49 0 0 0
SMALL
GASTEIGER

@<TRIPOS>ATOM
      1 C           1.1215   -0.3259    0.0002 C.ar    1  LIG1        0.0173
      2 C           0.7176    0.9721   -0.0005 C.ar    1  LIG1        0.0434
      3 C          -0.7144    0.9744    0.0003 C.ar    1  LIG1        0.0650
      4 C          -1.1226   -0.3223   -0.0003 C.ar    1  LIG1        0.0860
      5 N          -0.0018   -1.1217    0.0001 N.ar    1  LIG1       -0.3570
      6 H          -0.0034   -2.1157   -0.0003 H       1  LIG1        0.1655
      7 H           2.3167   -0.8373    0.0007 H       1  LIG1        0.0819
      8 S           1.4918    2.0164   -0.0003 S.3     1  LIG1       -0.1394
      9 H           0.7602    3.1031   -0.0002 H       1  LIG1        0.1072
     10 N          -1.4853    2.0212    0.0010 N.pl3   1  LIG1       -0.3554
     11 H          -1.0256    2.7740   -0.4702 H       1  LIG1        0.1424
     12 H          -2.3405    1.8056   -0.4703 H       1  LIG1        0.1424
     13 C          -2.3194   -0.8299   -0.0001 C.ar    1  LIG1        0.0804
     14 C          -3.5353   -0.2219   -0.0003 C.ar    1  LIG1        0.0529
     15 C          -4.5290   -1.2530    0.0012 C.ar    1  LIG1        0.0657
     16 C          -3.8767   -2.4457    0.0005 C.ar    1  LIG1        0.0865
     17 N          -2.5238   -2.1913    0.0002 N.ar    1  LIG1       -0.3494
     18 H          -1.8081   -2.8811   -0.0004 H       1  LIG1        0.1661
     19 S          -3.7520    1.0598   -0.0003 S.3     1  LIG1       -0.1388
     20 H          -5.0425    1.2851   -0.0003 H       1  LIG1        0.1072
     21 N          -5.8180   -1.0837    0.0025 N.pl3   1  LIG1       -0.3554
     22 H          -6.0426   -0.2307   -0.4686 H       1  LIG1        0.1424
     23 H          -6.2552   -1.8497   -0.4686 H       1  LIG1        0.1424
     24 C          -4.3398   -3.6604    0.0012 C.ar    1  LIG1        0.0804
     25 C          -5.6205   -4.1161    0.0179 C.ar    1  LIG1        0.0529
     26 C          -5.5654   -5.5470    0.0109 C.ar    1  LIG1        0.0657
     27 C          -4.2536   -5.9029   -0.0115 C.ar    1  LIG1        0.0865
     28 N          -3.4998   -4.7509   -0.0171 N.ar    1  LIG1       -0.3494
     29 H          -2.5066   -4.7126   -0.0325 H       1  LIG1        0.1661
     30 S          -6.6948   -3.3844    0.0381 S.3     1  LIG1       -0.1388
     31 H          -7.7512   -4.1590    0.0449 H       1  LIG1        0.1072
     32 N          -6.5804   -6.3593    0.0232 N.pl3   1  LIG1       -0.3554
     33 H          -7.3543   -5.9328   -0.4450 H       1  LIG1        0.1424
     34 H          -6.3339   -7.2078   -0.4451 H       1  LIG1        0.1424
     35 C          -3.6985   -7.0783   -0.0256 C.ar    1  LIG1        0.0799
     36 C          -4.2572   -8.3176   -0.0188 C.ar    1  LIG1        0.0522
     37 C          -3.1873   -9.2692   -0.0408 C.ar    1  LIG1        0.0561
     38 C          -2.0219   -8.5695   -0.0617 C.ar    1  LIG1        0.0241
     39 N          -2.3303   -7.2279   -0.0520 N.ar    1  LIG1       -0.3570
     40 H          -1.6699   -6.4851   -0.0630 H       1  LIG1        0.1655
     41 H          -0.7898   -8.9835   -0.0859 H       1  LIG1        0.0826
     42 S          -5.5290   -8.5856    0.0048 S.3     1  LIG1       -0.1388
     43 H          -5.7022   -9.8840    0.0127 H       1  LIG1        0.1072
     44 N          -3.3048  -10.5639   -0.0412 N.pl3   1  LIG1       -0.3560
     45 H          -4.1480  -10.8219   -0.5127 H       1  LIG1        0.1424
     46 H          -2.5218  -10.9695   -0.5127 H       1  LIG1        0.1424
@<TRIPOS>BOND
     1    46    44    1
     2    45    44    1
     3    12    10    1
     4    11    10    1
     5    23    21    1
     6    22    21    1
     7    34    32    1
     8    33    32    1
     9    41    38    1
    10    40    39    1
    11    38    39   ar
    12    38    37   ar
    13    39    35   ar
    14    44    37    1
    15    37    36   ar
    16    29    28    1
    17    35    36   ar
    18    35    27    1
    19    36    42    1
    20    28    27   ar
    21    28    24   ar
    22    27    26   ar
    23     2     8    1
    24     2     1   ar
    25     2     3   ar
    26    18    17    1
    27    14    19    1
    28    14    13   ar
    29    14    15   ar
    30     4    13    1
    31     4     5   ar
    32     4     3   ar
    33     6     5    1
    34     8     9    1
    35    19    20    1
    36    13    17   ar
    37     5     1   ar
    38    17    16   ar
    39     1     7    1
    40     3    10    1
    41    16    15   ar
    42    16    24    1
    43    15    21    1
    44    24    25   ar
    45    42    43    1
    46    26    25   ar
    47    26    32    1
    48    25    30    1
    49    30    31    1
