@<TRIPOS>MOLECULE
mol_data/noopt/geoms/mol2/13gh13gh13gh-13gh-.out
 46 49 0 0 0
SMALL
GASTEIGER

@<TRIPOS>ATOM
      1 C           1.1215   -0.3259    0.0002 C.ar    1  LIG1        0.0173
      2 C           0.7176    0.9721   -0.0005 C.ar    1  LIG1        0.0434
      3 C          -0.7144    0.9744    0.0003 C.ar    1  LIG1        0.0650
      4 C          -1.1226   -0.3223   -0.0003 C.ar    1  LIG1        0.0860
      5 N          -0.0018   -1.1217    0.0001 N.ar    1  LIG1       -0.3570
      6 H          -0.0034   -2.1157   -0.0003 H       1  LIG1        0.1655
      7 H           2.3167   -0.8373    0.0007 H       1  LIG1        0.0819
      8 S           1.4918    2.0164   -0.0003 S.3     1  LIG1       -0.1394
      9 H           0.7602    3.1031   -0.0002 H       1  LIG1        0.1072
     10 N          -1.4853    2.0212    0.0010 N.pl3   1  LIG1       -0.3554
     11 H          -1.0256    2.7740   -0.4702 H       1  LIG1        0.1424
     12 H          -2.3405    1.8056   -0.4703 H       1  LIG1        0.1424
     13 C          -2.3194   -0.8299   -0.0001 C.ar    1  LIG1        0.0804
     14 C          -3.5352   -0.2220    0.0163 C.ar    1  LIG1        0.0529
     15 C          -4.5290   -1.2531    0.0088 C.ar    1  LIG1        0.0657
     16 C          -3.8768   -2.4456   -0.0136 C.ar    1  LIG1        0.0865
     17 N          -2.5238   -2.1911   -0.0187 N.ar    1  LIG1       -0.3494
     18 H          -1.8082   -2.8808   -0.0339 H       1  LIG1        0.1661
     19 S          -3.7519    1.0596    0.0366 S.3     1  LIG1       -0.1388
     20 H          -5.0423    1.2848    0.0435 H       1  LIG1        0.1072
     21 N          -5.8179   -1.0839    0.0207 N.pl3   1  LIG1       -0.3554
     22 H          -6.0463   -0.2304   -0.4477 H       1  LIG1        0.1424
     23 H          -6.2589   -1.8494   -0.4477 H       1  LIG1        0.1424
     24 C          -4.3399   -3.6602   -0.0280 C.ar    1  LIG1        0.0804
     25 C          -5.6206   -4.1159   -0.0215 C.ar    1  LIG1        0.0529
     26 C          -5.5656   -5.5467   -0.0437 C.ar    1  LIG1        0.0657
     27 C          -4.2537   -5.9024   -0.0646 C.ar    1  LIG1        0.0865
     28 N          -3.4998   -4.7505   -0.0546 N.ar    1  LIG1       -0.3494
     29 H          -2.5066   -4.7122   -0.0655 H       1  LIG1        0.1661
     30 S          -6.6950   -3.3844    0.0022 S.3     1  LIG1       -0.1388
     31 H          -7.7513   -4.1591    0.0102 H       1  LIG1        0.1072
     32 N          -6.5806   -6.3590   -0.0444 N.pl3   1  LIG1       -0.3554
     33 H          -7.3508   -5.9295   -0.5160 H       1  LIG1        0.1424
     34 H          -6.3306   -7.2045   -0.5160 H       1  LIG1        0.1424
     35 C          -3.6986   -7.0777   -0.0891 C.ar    1  LIG1        0.0799
     36 C          -4.2575   -8.3168   -0.1060 C.ar    1  LIG1        0.0522
     37 C          -3.1875   -9.2682   -0.1295 C.ar    1  LIG1        0.0561
     38 C          -2.0219   -8.5687   -0.1276 C.ar    1  LIG1        0.0241
     39 N          -2.3302   -7.2272   -0.1024 N.ar    1  LIG1       -0.3570
     40 H          -1.6696   -6.4845   -0.0957 H       1  LIG1        0.1655
     41 H          -0.7896   -8.9826   -0.1440 H       1  LIG1        0.0826
     42 S          -5.5295   -8.5847   -0.1003 S.3     1  LIG1       -0.1388
     43 H          -5.7028   -9.8832   -0.0984 H       1  LIG1        0.1072
     44 N          -3.3051  -10.5628   -0.1495 N.pl3   1  LIG1       -0.3560
     45 H          -4.1477  -10.8136   -0.6259 H       1  LIG1        0.1424
     46 H          -2.5215  -10.9613   -0.6260 H       1  LIG1        0.1424
@<TRIPOS>BOND
     1    46    44    1
     2    45    44    1
     3    34    32    1
     4    33    32    1
     5    12    10    1
     6    11    10    1
     7    23    21    1
     8    22    21    1
     9    44    37    1
    10    41    38    1
    11    37    38   ar
    12    37    36   ar
    13    38    39   ar
    14    36    42    1
    15    36    35   ar
    16    39    40    1
    17    39    35   ar
    18    42    43    1
    19    35    27    1
    20    29    28    1
    21    27    28   ar
    22    27    26   ar
    23    28    24   ar
    24    32    26    1
    25    26    25   ar
    26    18    17    1
    27    24    25   ar
    28    24    16    1
    29    25    30    1
    30    17    16   ar
    31    17    13   ar
    32    16    15   ar
    33     2     8    1
    34     2     1   ar
    35     2     3   ar
    36     4    13    1
    37     4     5   ar
    38     4     3   ar
    39     6     5    1
    40     8     9    1
    41    13    14   ar
    42     5     1   ar
    43     1     7    1
    44     3    10    1
    45    30    31    1
    46    15    14   ar
    47    15    21    1
    48    14    19    1
    49    19    20    1
