@<TRIPOS>MOLECULE
mol_data/noopt/geoms/mol2/13gh13gh13gh13gh.out
 46 49 0 0 0
SMALL
GASTEIGER

@<TRIPOS>ATOM
      1 C           1.1215   -0.3259    0.0002 C.ar    1  LIG1        0.0173
      2 C           0.7176    0.9721   -0.0005 C.ar    1  LIG1        0.0434
      3 C          -0.7144    0.9744    0.0003 C.ar    1  LIG1        0.0650
      4 C          -1.1226   -0.3223   -0.0003 C.ar    1  LIG1        0.0860
      5 N          -0.0018   -1.1217    0.0001 N.ar    1  LIG1       -0.3570
      6 H          -0.0034   -2.1157   -0.0003 H       1  LIG1        0.1655
      7 H           2.3167   -0.8373    0.0007 H       1  LIG1        0.0819
      8 S           1.4918    2.0164   -0.0003 S.3     1  LIG1       -0.1394
      9 H           0.7602    3.1031   -0.0002 H       1  LIG1        0.1072
     10 N          -1.4853    2.0212    0.0010 N.pl3   1  LIG1       -0.3554
     11 H          -1.0256    2.7740   -0.4702 H       1  LIG1        0.1424
     12 H          -2.3405    1.8056   -0.4703 H       1  LIG1        0.1424
     13 C          -2.3194   -0.8299   -0.0001 C.ar    1  LIG1        0.0804
     14 C          -3.5352   -0.2220    0.0163 C.ar    1  LIG1        0.0529
     15 C          -4.5290   -1.2531    0.0088 C.ar    1  LIG1        0.0657
     16 C          -3.8768   -2.4456   -0.0136 C.ar    1  LIG1        0.0865
     17 N          -2.5238   -2.1911   -0.0187 N.ar    1  LIG1       -0.3494
     18 H          -1.8082   -2.8808   -0.0339 H       1  LIG1        0.1661
     19 S          -3.7519    1.0596    0.0366 S.3     1  LIG1       -0.1388
     20 H          -5.0423    1.2848    0.0435 H       1  LIG1        0.1072
     21 N          -5.8179   -1.0839    0.0207 N.pl3   1  LIG1       -0.3554
     22 H          -6.0463   -0.2304   -0.4477 H       1  LIG1        0.1424
     23 H          -6.2589   -1.8494   -0.4477 H       1  LIG1        0.1424
     24 C          -4.3399   -3.6602   -0.0280 C.ar    1  LIG1        0.0804
     25 C          -5.6207   -4.1157   -0.0381 C.ar    1  LIG1        0.0529
     26 C          -5.5656   -5.5466   -0.0513 C.ar    1  LIG1        0.0657
     27 C          -4.2537   -5.9026   -0.0505 C.ar    1  LIG1        0.0865
     28 N          -3.4998   -4.7508   -0.0358 N.ar    1  LIG1       -0.3494
     29 H          -2.5065   -4.7126   -0.0320 H       1  LIG1        0.1661
     30 S          -6.6951   -3.3839   -0.0347 S.3     1  LIG1       -0.1388
     31 H          -7.7516   -4.1584   -0.0335 H       1  LIG1        0.1072
     32 N          -6.5807   -6.3587   -0.0626 N.pl3   1  LIG1       -0.3554
     33 H          -7.3479   -5.9268   -0.5369 H       1  LIG1        0.1424
     34 H          -6.3278   -7.2019   -0.5369 H       1  LIG1        0.1424
     35 C          -3.6985   -7.0781   -0.0599 C.ar    1  LIG1        0.0799
     36 C          -4.2572   -8.3173   -0.0500 C.ar    1  LIG1        0.0522
     37 C          -3.1873   -9.2689   -0.0673 C.ar    1  LIG1        0.0561
     38 C          -2.0218   -8.5693   -0.0887 C.ar    1  LIG1        0.0241
     39 N          -2.3303   -7.2277   -0.0838 N.ar    1  LIG1       -0.3570
     40 H          -1.6699   -6.4849   -0.0962 H       1  LIG1        0.1655
     41 H          -0.7897   -8.9833   -0.1097 H       1  LIG1        0.0826
     42 S          -5.5290   -8.5853   -0.0275 S.3     1  LIG1       -0.1388
     43 H          -5.7023   -9.8837   -0.0199 H       1  LIG1        0.1072
     44 N          -3.3047  -10.5636   -0.0637 N.pl3   1  LIG1       -0.3560
     45 H          -4.1481  -10.8231   -0.5342 H       1  LIG1        0.1424
     46 H          -2.5218  -10.9706   -0.5342 H       1  LIG1        0.1424
@<TRIPOS>BOND
     1    34    32    1
     2    33    32    1
     3    46    44    1
     4    45    44    1
     5    12    10    1
     6    11    10    1
     7    23    21    1
     8    22    21    1
     9    41    38    1
    10    40    39    1
    11    38    39   ar
    12    38    37   ar
    13    39    35   ar
    14    37    44    1
    15    37    36   ar
    16    32    26    1
    17    35    27    1
    18    35    36   ar
    19    26    27   ar
    20    26    25   ar
    21    27    28   ar
    22    36    42    1
    23    25    30    1
    24    25    24   ar
    25    28    29    1
    26    28    24   ar
    27    30    31    1
    28    18    17    1
    29    24    16    1
    30    42    43    1
    31    17    16   ar
    32    17    13   ar
    33    16    15   ar
    34     2     8    1
    35     2     1   ar
    36     2     3   ar
    37     4    13    1
    38     4     5   ar
    39     4     3   ar
    40     6     5    1
    41     8     9    1
    42    13    14   ar
    43     5     1   ar
    44     1     7    1
    45     3    10    1
    46    15    14   ar
    47    15    21    1
    48    14    19    1
    49    19    20    1
