@<TRIPOS>MOLECULE
mol_data/noopt/geoms/mol2/13gh13gh13gh.out
 35 37 0 0 0
SMALL
GASTEIGER

@<TRIPOS>ATOM
      1 C           1.1215   -0.3259    0.0002 C.ar    1  LIG1        0.0173
      2 C           0.7176    0.9721   -0.0005 C.ar    1  LIG1        0.0434
      3 C          -0.7144    0.9744    0.0003 C.ar    1  LIG1        0.0650
      4 C          -1.1226   -0.3223   -0.0003 C.ar    1  LIG1        0.0860
      5 N          -0.0018   -1.1217    0.0001 N.ar    1  LIG1       -0.3570
      6 H          -0.0034   -2.1157   -0.0003 H       1  LIG1        0.1655
      7 H           2.3167   -0.8373    0.0007 H       1  LIG1        0.0819
      8 S           1.4918    2.0164   -0.0003 S.3     1  LIG1       -0.1394
      9 H           0.7602    3.1031   -0.0002 H       1  LIG1        0.1072
     10 N          -1.4853    2.0212    0.0010 N.pl3   1  LIG1       -0.3554
     11 H          -1.0256    2.7740   -0.4702 H       1  LIG1        0.1424
     12 H          -2.3405    1.8056   -0.4703 H       1  LIG1        0.1424
     13 C          -2.3194   -0.8299   -0.0001 C.ar    1  LIG1        0.0804
     14 C          -3.5352   -0.2220    0.0163 C.ar    1  LIG1        0.0529
     15 C          -4.5290   -1.2531    0.0088 C.ar    1  LIG1        0.0657
     16 C          -3.8768   -2.4456   -0.0136 C.ar    1  LIG1        0.0865
     17 N          -2.5238   -2.1911   -0.0187 N.ar    1  LIG1       -0.3494
     18 H          -1.8082   -2.8808   -0.0339 H       1  LIG1        0.1661
     19 S          -3.7519    1.0596    0.0366 S.3     1  LIG1       -0.1388
     20 H          -5.0423    1.2848    0.0435 H       1  LIG1        0.1072
     21 N          -5.8179   -1.0839    0.0207 N.pl3   1  LIG1       -0.3554
     22 H          -6.0463   -0.2304   -0.4477 H       1  LIG1        0.1424
     23 H          -6.2589   -1.8494   -0.4477 H       1  LIG1        0.1424
     24 C          -4.3399   -3.6602   -0.0280 C.ar    1  LIG1        0.0799
     25 C          -5.6207   -4.1157   -0.0381 C.ar    1  LIG1        0.0522
     26 C          -5.5656   -5.5466   -0.0513 C.ar    1  LIG1        0.0561
     27 C          -4.2537   -5.9026   -0.0505 C.ar    1  LIG1        0.0241
     28 N          -3.4998   -4.7508   -0.0358 N.ar    1  LIG1       -0.3570
     29 H          -2.5065   -4.7126   -0.0320 H       1  LIG1        0.1655
     30 H          -3.6986   -7.0781   -0.0599 H       1  LIG1        0.0826
     31 S          -6.6951   -3.3839   -0.0347 S.3     1  LIG1       -0.1388
     32 H          -7.7516   -4.1584   -0.0335 H       1  LIG1        0.1072
     33 N          -6.5807   -6.3587   -0.0626 N.pl3   1  LIG1       -0.3560
     34 H          -7.3479   -5.9268   -0.5369 H       1  LIG1        0.1424
     35 H          -6.3278   -7.2019   -0.5369 H       1  LIG1        0.1424
@<TRIPOS>BOND
     1    35    33    1
     2    34    33    1
     3    12    10    1
     4    11    10    1
     5    23    21    1
     6    22    21    1
     7    33    26    1
     8    30    27    1
     9    26    27   ar
    10    26    25   ar
    11    27    28   ar
    12    25    31    1
    13    25    24   ar
    14    28    29    1
    15    28    24   ar
    16    31    32    1
    17    18    17    1
    18    24    16    1
    19    17    16   ar
    20    17    13   ar
    21    16    15   ar
    22     2     8    1
    23     2     1   ar
    24     2     3   ar
    25     4    13    1
    26     4     5   ar
    27     4     3   ar
    28     8     9    1
    29     6     5    1
    30    13    14   ar
    31     5     1   ar
    32     1     7    1
    33     3    10    1
    34    15    14   ar
    35    15    21    1
    36    14    19    1
    37    19    20    1
