@<TRIPOS>MOLECULE
mol_data/noopt/geoms/mol2/13gi13gi-.out
 26 27 0 0 0
SMALL
GASTEIGER

@<TRIPOS>ATOM
      1 C           1.1215   -0.3259    0.0002 C.ar    1  LIG1        0.0157
      2 C           0.7176    0.9721   -0.0005 C.ar    1  LIG1        0.0256
      3 C          -0.7144    0.9744    0.0003 C.ar    1  LIG1       -0.0106
      4 C          -1.1226   -0.3223   -0.0003 C.ar    1  LIG1        0.0680
      5 N          -0.0018   -1.1217    0.0001 N.ar    1  LIG1       -0.3583
      6 H          -0.0034   -2.1157   -0.0003 H       1  LIG1        0.1654
      7 H           2.3167   -0.8373    0.0007 H       1  LIG1        0.0818
      8 S           1.4918    2.0164   -0.0003 S.3     1  LIG1       -0.1409
      9 H           0.7602    3.1031   -0.0002 H       1  LIG1        0.1072
     10 C          -1.4855    2.0214    0.0010 C.3     1  LIG1       -0.0366
     11 H          -2.4003    1.7904    0.5056 H       1  LIG1        0.0279
     12 H          -1.6974    2.3090   -1.0077 H       1  LIG1        0.0279
     13 H          -0.9933    2.8265    0.5056 H       1  LIG1        0.0279
     14 C          -2.3194   -0.8299   -0.0001 C.ar    1  LIG1        0.0767
     15 C          -3.5353   -0.2219   -0.0003 C.ar    1  LIG1        0.0344
     16 C          -4.5290   -1.2530    0.0012 C.ar    1  LIG1       -0.0193
     17 C          -3.8767   -2.4457    0.0005 C.ar    1  LIG1        0.0062
     18 N          -2.5238   -2.1913    0.0002 N.ar    1  LIG1       -0.3584
     19 H          -1.8081   -2.8811   -0.0004 H       1  LIG1        0.1654
     20 H          -4.3398   -3.6604    0.0012 H       1  LIG1        0.0810
     21 S          -3.7520    1.0598   -0.0003 S.3     1  LIG1       -0.1403
     22 H          -5.0425    1.2851   -0.0003 H       1  LIG1        0.1072
     23 C          -5.8182   -1.0837    0.0025 C.3     1  LIG1       -0.0372
     24 H          -6.2852   -1.9035    0.5073 H       1  LIG1        0.0278
     25 H          -6.1729   -1.0372   -1.0060 H       1  LIG1        0.0278
     26 H          -6.0576   -0.1710    0.5072 H       1  LIG1        0.0278
@<TRIPOS>BOND
     1    12    10    1
     2    25    23    1
     3     2     8    1
     4     2     1   ar
     5     2     3   ar
     6    19    18    1
     7    15    21    1
     8    15    14   ar
     9    15    16   ar
    10     4    14    1
    11     4     5   ar
    12     4     3   ar
    13     6     5    1
    14     8     9    1
    15    21    22    1
    16    14    18   ar
    17     5     1   ar
    18    18    17   ar
    19     1     7    1
    20     3    10    1
    21    17    16   ar
    22    17    20    1
    23    10    13    1
    24    10    11    1
    25    16    23    1
    26    23    26    1
    27    23    24    1
