@<TRIPOS>MOLECULE
mol_data/noopt/geoms/mol2/13gi13gi13gi.out
 38 40 0 0 0
SMALL
GASTEIGER

@<TRIPOS>ATOM
      1 C           1.1215   -0.3259    0.0002 C.ar    1  LIG1        0.0157
      2 C           0.7176    0.9721   -0.0005 C.ar    1  LIG1        0.0256
      3 C          -0.7144    0.9744    0.0003 C.ar    1  LIG1       -0.0106
      4 C          -1.1226   -0.3223   -0.0003 C.ar    1  LIG1        0.0680
      5 N          -0.0018   -1.1217    0.0001 N.ar    1  LIG1       -0.3583
      6 H          -0.0034   -2.1157   -0.0003 H       1  LIG1        0.1654
      7 H           2.3167   -0.8373    0.0007 H       1  LIG1        0.0818
      8 S           1.4918    2.0164   -0.0003 S.3     1  LIG1       -0.1409
      9 H           0.7602    3.1031   -0.0002 H       1  LIG1        0.1072
     10 C          -1.4855    2.0214    0.0010 C.3     1  LIG1       -0.0366
     11 H          -2.4003    1.7904    0.5056 H       1  LIG1        0.0279
     12 H          -1.6974    2.3090   -1.0077 H       1  LIG1        0.0279
     13 H          -0.9933    2.8265    0.5056 H       1  LIG1        0.0279
     14 C          -2.3194   -0.8299   -0.0001 C.ar    1  LIG1        0.0772
     15 C          -3.5352   -0.2220    0.0163 C.ar    1  LIG1        0.0351
     16 C          -4.5290   -1.2531    0.0088 C.ar    1  LIG1       -0.0099
     17 C          -3.8768   -2.4456   -0.0136 C.ar    1  LIG1        0.0685
     18 N          -2.5238   -2.1911   -0.0187 N.ar    1  LIG1       -0.3508
     19 H          -1.8082   -2.8808   -0.0339 H       1  LIG1        0.1660
     20 S          -3.7519    1.0596    0.0366 S.3     1  LIG1       -0.1403
     21 H          -5.0423    1.2848    0.0435 H       1  LIG1        0.1072
     22 C          -5.8182   -1.0838    0.0207 C.3     1  LIG1       -0.0366
     23 H          -6.2809   -1.9042    0.5283 H       1  LIG1        0.0279
     24 H          -6.1810   -1.0363   -0.9849 H       1  LIG1        0.0279
     25 H          -6.0535   -0.1718    0.5283 H       1  LIG1        0.0279
     26 C          -4.3399   -3.6602   -0.0280 C.ar    1  LIG1        0.0768
     27 C          -5.6207   -4.1157   -0.0381 C.ar    1  LIG1        0.0344
     28 C          -5.5656   -5.5466   -0.0513 C.ar    1  LIG1       -0.0193
     29 C          -4.2537   -5.9026   -0.0505 C.ar    1  LIG1        0.0062
     30 N          -3.4998   -4.7508   -0.0358 N.ar    1  LIG1       -0.3584
     31 H          -2.5065   -4.7126   -0.0320 H       1  LIG1        0.1654
     32 H          -3.6986   -7.0781   -0.0599 H       1  LIG1        0.0810
     33 S          -6.6951   -3.3839   -0.0347 S.3     1  LIG1       -0.1403
     34 H          -7.7516   -4.1584   -0.0335 H       1  LIG1        0.1072
     35 C          -6.5810   -6.3589   -0.0626 C.3     1  LIG1       -0.0372
     36 H          -6.3171   -7.2666    0.4387 H       1  LIG1        0.0278
     37 H          -6.8526   -6.5763   -1.0745 H       1  LIG1        0.0278
     38 H          -7.4086   -5.9022    0.4387 H       1  LIG1        0.0278
@<TRIPOS>BOND
     1    37    35    1
     2    12    10    1
     3    24    22    1
     4    35    28    1
     5    35    38    1
     6    35    36    1
     7    32    29    1
     8    28    29   ar
     9    28    27   ar
    10    29    30   ar
    11    27    33    1
    12    27    26   ar
    13    30    31    1
    14    30    26   ar
    15    33    34    1
    16    19    18    1
    17    26    17    1
    18    18    17   ar
    19    18    14   ar
    20    17    16   ar
    21     2     8    1
    22     2     1   ar
    23     2     3   ar
    24     8     9    1
    25     6     5    1
    26     4    14    1
    27     4     5   ar
    28     4     3   ar
    29    14    15   ar
    30     5     1   ar
    31     1     7    1
    32     3    10    1
    33    10    13    1
    34    10    11    1
    35    16    15   ar
    36    16    22    1
    37    15    20    1
    38    22    25    1
    39    22    23    1
    40    20    21    1
