@<TRIPOS>MOLECULE
mol_data/noopt/geoms/mol2/13gi13gi13gi-13gi-.out
 50 53 0 0 0
SMALL
GASTEIGER

@<TRIPOS>ATOM
      1 C           1.1215   -0.3259    0.0002 C.ar    1  LIG1        0.0157
      2 C           0.7176    0.9721   -0.0005 C.ar    1  LIG1        0.0256
      3 C          -0.7144    0.9744    0.0003 C.ar    1  LIG1       -0.0106
      4 C          -1.1226   -0.3223   -0.0003 C.ar    1  LIG1        0.0680
      5 N          -0.0018   -1.1217    0.0001 N.ar    1  LIG1       -0.3583
      6 H          -0.0034   -2.1157   -0.0003 H       1  LIG1        0.1654
      7 H           2.3167   -0.8373    0.0007 H       1  LIG1        0.0818
      8 S           1.4918    2.0164   -0.0003 S.3     1  LIG1       -0.1409
      9 H           0.7602    3.1031   -0.0002 H       1  LIG1        0.1072
     10 C          -1.4855    2.0214    0.0010 C.3     1  LIG1       -0.0366
     11 H          -2.4003    1.7904    0.5056 H       1  LIG1        0.0279
     12 H          -1.6974    2.3090   -1.0077 H       1  LIG1        0.0279
     13 H          -0.9933    2.8265    0.5056 H       1  LIG1        0.0279
     14 C          -2.3194   -0.8299   -0.0001 C.ar    1  LIG1        0.0772
     15 C          -3.5352   -0.2220    0.0163 C.ar    1  LIG1        0.0351
     16 C          -4.5290   -1.2531    0.0088 C.ar    1  LIG1       -0.0099
     17 C          -3.8768   -2.4456   -0.0136 C.ar    1  LIG1        0.0685
     18 N          -2.5238   -2.1911   -0.0187 N.ar    1  LIG1       -0.3508
     19 H          -1.8082   -2.8808   -0.0339 H       1  LIG1        0.1660
     20 S          -3.7519    1.0596    0.0366 S.3     1  LIG1       -0.1403
     21 H          -5.0423    1.2848    0.0435 H       1  LIG1        0.1072
     22 C          -5.8182   -1.0838    0.0207 C.3     1  LIG1       -0.0366
     23 H          -6.2809   -1.9042    0.5283 H       1  LIG1        0.0279
     24 H          -6.1810   -1.0363   -0.9849 H       1  LIG1        0.0279
     25 H          -6.0535   -0.1718    0.5283 H       1  LIG1        0.0279
     26 C          -4.3399   -3.6602   -0.0280 C.ar    1  LIG1        0.0772
     27 C          -5.6206   -4.1159   -0.0215 C.ar    1  LIG1        0.0351
     28 C          -5.5656   -5.5467   -0.0437 C.ar    1  LIG1       -0.0099
     29 C          -4.2537   -5.9024   -0.0646 C.ar    1  LIG1        0.0685
     30 N          -3.4998   -4.7505   -0.0546 N.ar    1  LIG1       -0.3508
     31 H          -2.5066   -4.7122   -0.0655 H       1  LIG1        0.1660
     32 S          -6.6950   -3.3844    0.0022 S.3     1  LIG1       -0.1403
     33 H          -7.7513   -4.1591    0.0102 H       1  LIG1        0.1072
     34 C          -6.5809   -6.3591   -0.0444 C.3     1  LIG1       -0.0366
     35 H          -6.3137   -7.2643    0.4598 H       1  LIG1        0.0279
     36 H          -6.8589   -6.5817   -1.0534 H       1  LIG1        0.0279
     37 H          -7.4054   -5.9000    0.4598 H       1  LIG1        0.0279
     38 C          -3.6986   -7.0777   -0.0891 C.ar    1  LIG1        0.0768
     39 C          -4.2575   -8.3168   -0.1060 C.ar    1  LIG1        0.0344
     40 C          -3.1875   -9.2682   -0.1295 C.ar    1  LIG1       -0.0193
     41 C          -2.0219   -8.5687   -0.1276 C.ar    1  LIG1        0.0062
     42 N          -2.3302   -7.2272   -0.1024 N.ar    1  LIG1       -0.3584
     43 H          -1.6696   -6.4845   -0.0957 H       1  LIG1        0.1654
     44 H          -0.7896   -8.9826   -0.1440 H       1  LIG1        0.0810
     45 S          -5.5295   -8.5847   -0.1003 S.3     1  LIG1       -0.1403
     46 H          -5.7028   -9.8832   -0.0984 H       1  LIG1        0.1072
     47 C          -3.3051  -10.5631   -0.1495 C.3     1  LIG1       -0.0372
     48 H          -2.4680  -11.0050    0.3494 H       1  LIG1        0.0278
     49 H          -3.3359  -10.9028   -1.1637 H       1  LIG1        0.0278
     50 H          -4.2082  -10.8469    0.3494 H       1  LIG1        0.0278
@<TRIPOS>BOND
     1    49    47    1
     2    36    34    1
     3    12    10    1
     4    24    22    1
     5    47    40    1
     6    47    50    1
     7    47    48    1
     8    44    41    1
     9    40    41   ar
    10    40    39   ar
    11    41    42   ar
    12    39    45    1
    13    39    38   ar
    14    42    43    1
    15    42    38   ar
    16    45    46    1
    17    38    29    1
    18    31    30    1
    19    29    30   ar
    20    29    28   ar
    21    30    26   ar
    22    34    28    1
    23    34    37    1
    24    34    35    1
    25    28    27   ar
    26    19    18    1
    27    26    27   ar
    28    26    17    1
    29    27    32    1
    30    18    17   ar
    31    18    14   ar
    32    17    16   ar
    33     2     8    1
    34     2     1   ar
    35     2     3   ar
    36     8     9    1
    37     6     5    1
    38     4    14    1
    39     4     5   ar
    40     4     3   ar
    41    14    15   ar
    42     5     1   ar
    43     1     7    1
    44     3    10    1
    45    10    13    1
    46    10    11    1
    47    32    33    1
    48    16    15   ar
    49    16    22    1
    50    15    20    1
    51    22    25    1
    52    22    23    1
    53    20    21    1
