@<TRIPOS>MOLECULE
mol_data/noopt/geoms/mol2/13gi13gi-13gi13gi-.out
 50 53 0 0 0
SMALL
GASTEIGER

@<TRIPOS>ATOM
      1 C           1.1215   -0.3259    0.0002 C.ar    1  LIG1        0.0157
      2 C           0.7176    0.9721   -0.0005 C.ar    1  LIG1        0.0256
      3 C          -0.7144    0.9744    0.0003 C.ar    1  LIG1       -0.0106
      4 C          -1.1226   -0.3223   -0.0003 C.ar    1  LIG1        0.0680
      5 N          -0.0018   -1.1217    0.0001 N.ar    1  LIG1       -0.3583
      6 H          -0.0034   -2.1157   -0.0003 H       1  LIG1        0.1654
      7 H           2.3167   -0.8373    0.0007 H       1  LIG1        0.0818
      8 S           1.4918    2.0164   -0.0003 S.3     1  LIG1       -0.1409
      9 H           0.7602    3.1031   -0.0002 H       1  LIG1        0.1072
     10 C          -1.4855    2.0214    0.0010 C.3     1  LIG1       -0.0366
     11 H          -2.4003    1.7904    0.5056 H       1  LIG1        0.0279
     12 H          -1.6974    2.3090   -1.0077 H       1  LIG1        0.0279
     13 H          -0.9933    2.8265    0.5056 H       1  LIG1        0.0279
     14 C          -2.3194   -0.8299   -0.0001 C.ar    1  LIG1        0.0772
     15 C          -3.5353   -0.2219   -0.0003 C.ar    1  LIG1        0.0351
     16 C          -4.5290   -1.2530    0.0012 C.ar    1  LIG1       -0.0099
     17 C          -3.8767   -2.4457    0.0005 C.ar    1  LIG1        0.0685
     18 N          -2.5238   -2.1913    0.0002 N.ar    1  LIG1       -0.3508
     19 H          -1.8081   -2.8811   -0.0004 H       1  LIG1        0.1660
     20 S          -3.7520    1.0598   -0.0003 S.3     1  LIG1       -0.1403
     21 H          -5.0425    1.2851   -0.0003 H       1  LIG1        0.1072
     22 C          -5.8182   -1.0837    0.0025 C.3     1  LIG1       -0.0366
     23 H          -6.2852   -1.9035    0.5073 H       1  LIG1        0.0279
     24 H          -6.1729   -1.0372   -1.0060 H       1  LIG1        0.0279
     25 H          -6.0576   -0.1710    0.5072 H       1  LIG1        0.0279
     26 C          -4.3398   -3.6604    0.0012 C.ar    1  LIG1        0.0772
     27 C          -5.6206   -4.1160    0.0013 C.ar    1  LIG1        0.0351
     28 C          -5.5655   -5.5470    0.0033 C.ar    1  LIG1       -0.0099
     29 C          -4.2535   -5.9029    0.0026 C.ar    1  LIG1        0.0685
     30 N          -3.4996   -4.7510    0.0018 N.ar    1  LIG1       -0.3508
     31 H          -2.5064   -4.7127    0.0010 H       1  LIG1        0.1660
     32 S          -6.6950   -3.3843    0.0012 S.3     1  LIG1       -0.1403
     33 H          -7.7515   -4.1589    0.0012 H       1  LIG1        0.1072
     34 C          -6.5808   -6.3594    0.0050 C.3     1  LIG1       -0.0366
     35 H          -6.3129   -7.2640    0.5099 H       1  LIG1        0.0279
     36 H          -6.8603   -6.5831   -1.0034 H       1  LIG1        0.0279
     37 H          -7.4046   -5.8996    0.5099 H       1  LIG1        0.0279
     38 C          -3.6983   -7.0784    0.0036 C.ar    1  LIG1        0.0768
     39 C          -4.2571   -8.3176    0.0039 C.ar    1  LIG1        0.0344
     40 C          -3.1870   -9.2693    0.0063 C.ar    1  LIG1       -0.0193
     41 C          -2.0214   -8.5697    0.0055 C.ar    1  LIG1        0.0062
     42 N          -2.3298   -7.2280    0.0043 N.ar    1  LIG1       -0.3584
     43 H          -1.6693   -6.4852    0.0035 H       1  LIG1        0.1654
     44 H          -0.7891   -8.9837    0.0068 H       1  LIG1        0.0810
     45 S          -5.5291   -8.5855    0.0038 S.3     1  LIG1       -0.1403
     46 H          -5.7025   -9.8840    0.0037 H       1  LIG1        0.1072
     47 C          -3.3045  -10.5642    0.0083 C.3     1  LIG1       -0.0372
     48 H          -2.4666  -10.9977    0.5133 H       1  LIG1        0.0278
     49 H          -3.3369  -10.9210   -1.0000 H       1  LIG1        0.0278
     50 H          -4.2068  -10.8397    0.5132 H       1  LIG1        0.0278
@<TRIPOS>BOND
     1    12    10    1
     2    24    22    1
     3    36    34    1
     4    49    47    1
     5     2     8    1
     6     2     1   ar
     7     2     3   ar
     8    19    18    1
     9    15    20    1
    10    15    14   ar
    11    15    16   ar
    12     4    14    1
    13     4     5   ar
    14     4     3   ar
    15     8     9    1
    16     6     5    1
    17    20    21    1
    18    14    18   ar
    19     5     1   ar
    20    18    17   ar
    21     1     7    1
    22     3    10    1
    23    17    16   ar
    24    17    26    1
    25    31    30    1
    26    10    13    1
    27    10    11    1
    28    16    22    1
    29    26    27   ar
    30    26    30   ar
    31    33    32    1
    32    32    27    1
    33    27    28   ar
    34    30    29   ar
    35    22    25    1
    36    22    23    1
    37    29    28   ar
    38    29    38    1
    39    28    34    1
    40    43    42    1
    41    38    39   ar
    42    38    42   ar
    43    46    45    1
    44    45    39    1
    45    39    40   ar
    46    42    41   ar
    47    34    37    1
    48    34    35    1
    49    41    40   ar
    50    41    44    1
    51    40    47    1
    52    47    50    1
    53    47    48    1
