@<TRIPOS>MOLECULE
mol_data/noopt/geoms/mol2/13gi13gi-13gi-13gi.out
 50 53 0 0 0
SMALL
GASTEIGER

@<TRIPOS>ATOM
      1 C           1.1215   -0.3259    0.0002 C.ar    1  LIG1        0.0157
      2 C           0.7176    0.9721   -0.0005 C.ar    1  LIG1        0.0256
      3 C          -0.7144    0.9744    0.0003 C.ar    1  LIG1       -0.0106
      4 C          -1.1226   -0.3223   -0.0003 C.ar    1  LIG1        0.0680
      5 N          -0.0018   -1.1217    0.0001 N.ar    1  LIG1       -0.3583
      6 H          -0.0034   -2.1157   -0.0003 H       1  LIG1        0.1654
      7 H           2.3167   -0.8373    0.0007 H       1  LIG1        0.0818
      8 S           1.4918    2.0164   -0.0003 S.3     1  LIG1       -0.1409
      9 H           0.7602    3.1031   -0.0002 H       1  LIG1        0.1072
     10 C          -1.4855    2.0214    0.0010 C.3     1  LIG1       -0.0366
     11 H          -2.4003    1.7904    0.5056 H       1  LIG1        0.0279
     12 H          -1.6974    2.3090   -1.0077 H       1  LIG1        0.0279
     13 H          -0.9933    2.8265    0.5056 H       1  LIG1        0.0279
     14 C          -2.3194   -0.8299   -0.0001 C.ar    1  LIG1        0.0772
     15 C          -3.5353   -0.2219   -0.0003 C.ar    1  LIG1        0.0351
     16 C          -4.5290   -1.2530    0.0012 C.ar    1  LIG1       -0.0099
     17 C          -3.8767   -2.4457    0.0005 C.ar    1  LIG1        0.0685
     18 N          -2.5238   -2.1913    0.0002 N.ar    1  LIG1       -0.3508
     19 H          -1.8081   -2.8811   -0.0004 H       1  LIG1        0.1660
     20 S          -3.7520    1.0598   -0.0003 S.3     1  LIG1       -0.1403
     21 H          -5.0425    1.2851   -0.0003 H       1  LIG1        0.1072
     22 C          -5.8182   -1.0837    0.0025 C.3     1  LIG1       -0.0366
     23 H          -6.2852   -1.9035    0.5073 H       1  LIG1        0.0279
     24 H          -6.1729   -1.0372   -1.0060 H       1  LIG1        0.0279
     25 H          -6.0576   -0.1710    0.5072 H       1  LIG1        0.0279
     26 C          -4.3398   -3.6604    0.0012 C.ar    1  LIG1        0.0772
     27 C          -5.6205   -4.1161    0.0179 C.ar    1  LIG1        0.0351
     28 C          -5.5654   -5.5470    0.0109 C.ar    1  LIG1       -0.0099
     29 C          -4.2536   -5.9029   -0.0115 C.ar    1  LIG1        0.0685
     30 N          -3.4998   -4.7509   -0.0171 N.ar    1  LIG1       -0.3508
     31 H          -2.5066   -4.7126   -0.0325 H       1  LIG1        0.1660
     32 S          -6.6948   -3.3844    0.0381 S.3     1  LIG1       -0.1403
     33 H          -7.7512   -4.1590    0.0449 H       1  LIG1        0.1072
     34 C          -6.5806   -6.3594    0.0232 C.3     1  LIG1       -0.0366
     35 H          -6.3095   -7.2614    0.5310 H       1  LIG1        0.0279
     36 H          -6.8665   -6.5883   -0.9822 H       1  LIG1        0.0279
     37 H          -7.4012   -5.8971    0.5309 H       1  LIG1        0.0279
     38 C          -3.6985   -7.0783   -0.0256 C.ar    1  LIG1        0.0768
     39 C          -4.2572   -8.3176   -0.0188 C.ar    1  LIG1        0.0344
     40 C          -3.1873   -9.2692   -0.0408 C.ar    1  LIG1       -0.0193
     41 C          -2.0219   -8.5695   -0.0617 C.ar    1  LIG1        0.0062
     42 N          -2.3303   -7.2279   -0.0520 N.ar    1  LIG1       -0.3584
     43 H          -1.6699   -6.4851   -0.0630 H       1  LIG1        0.1654
     44 H          -0.7898   -8.9835   -0.0859 H       1  LIG1        0.0810
     45 S          -5.5290   -8.5856    0.0048 S.3     1  LIG1       -0.1403
     46 H          -5.7022   -9.8840    0.0127 H       1  LIG1        0.1072
     47 C          -3.3048  -10.5642   -0.0412 C.3     1  LIG1       -0.0372
     48 H          -2.4670  -10.9985    0.4632 H       1  LIG1        0.0278
     49 H          -3.3369  -10.9191   -1.0501 H       1  LIG1        0.0278
     50 H          -4.2072  -10.8405    0.4631 H       1  LIG1        0.0278
@<TRIPOS>BOND
     1    49    47    1
     2    12    10    1
     3    24    22    1
     4    36    34    1
     5    44    41    1
     6    43    42    1
     7    41    42   ar
     8    41    40   ar
     9    42    38   ar
    10    47    40    1
    11    47    50    1
    12    47    48    1
    13    40    39   ar
    14    31    30    1
    15    38    39   ar
    16    38    29    1
    17    39    45    1
    18    30    29   ar
    19    30    26   ar
    20    29    28   ar
    21     2     8    1
    22     2     1   ar
    23     2     3   ar
    24    19    18    1
    25    15    20    1
    26    15    14   ar
    27    15    16   ar
    28     8     9    1
    29     6     5    1
    30     4    14    1
    31     4     5   ar
    32     4     3   ar
    33    20    21    1
    34    14    18   ar
    35     5     1   ar
    36    18    17   ar
    37     1     7    1
    38     3    10    1
    39    17    16   ar
    40    17    26    1
    41    10    13    1
    42    10    11    1
    43    16    22    1
    44    26    27   ar
    45    22    25    1
    46    22    23    1
    47    45    46    1
    48    28    27   ar
    49    28    34    1
    50    27    32    1
    51    34    37    1
    52    34    35    1
    53    32    33    1
