@<TRIPOS>MOLECULE
mol_data/noopt/geoms/mol2/13gi.out
 14 14 0 0 0
SMALL
GASTEIGER

@<TRIPOS>ATOM
      1 C           1.1215   -0.3259    0.0002 C.ar    1  LIG1        0.0152
      2 C           0.7176    0.9721   -0.0005 C.ar    1  LIG1        0.0250
      3 C          -0.7144    0.9744    0.0003 C.ar    1  LIG1       -0.0200
      4 C          -1.1226   -0.3223   -0.0003 C.ar    1  LIG1        0.0056
      5 N          -0.0018   -1.1217    0.0001 N.ar    1  LIG1       -0.3658
      6 H          -0.0034   -2.1157   -0.0003 H       1  LIG1        0.1648
      7 H          -2.3194   -0.8299   -0.0001 H       1  LIG1        0.0810
      8 H           2.3167   -0.8373    0.0007 H       1  LIG1        0.0818
      9 S           1.4918    2.0164   -0.0003 S.3     1  LIG1       -0.1409
     10 H           0.7602    3.1031   -0.0002 H       1  LIG1        0.1072
     11 C          -1.4855    2.0214    0.0010 C.3     1  LIG1       -0.0373
     12 H          -2.4003    1.7904    0.5056 H       1  LIG1        0.0278
     13 H          -1.6974    2.3090   -1.0077 H       1  LIG1        0.0278
     14 H          -0.9933    2.8265    0.5056 H       1  LIG1        0.0278
@<TRIPOS>BOND
     1    13    11    1
     2     2     9    1
     3     2     1   ar
     4     2     3   ar
     5     4     7    1
     6     4     5   ar
     7     4     3   ar
     8     6     5    1
     9     9    10    1
    10     5     1   ar
    11     1     8    1
    12     3    11    1
    13    11    14    1
    14    11    12    1
