@<TRIPOS>MOLECULE
mol_data/noopt/geoms/mol2/13gi13gi13gi13gi.out
 50 53 0 0 0
SMALL
GASTEIGER

@<TRIPOS>ATOM
      1 C           1.1215   -0.3259    0.0002 C.ar    1  LIG1        0.0157
      2 C           0.7176    0.9721   -0.0005 C.ar    1  LIG1        0.0256
      3 C          -0.7144    0.9744    0.0003 C.ar    1  LIG1       -0.0106
      4 C          -1.1226   -0.3223   -0.0003 C.ar    1  LIG1        0.0680
      5 N          -0.0018   -1.1217    0.0001 N.ar    1  LIG1       -0.3583
      6 H          -0.0034   -2.1157   -0.0003 H       1  LIG1        0.1654
      7 H           2.3167   -0.8373    0.0007 H       1  LIG1        0.0818
      8 S           1.4918    2.0164   -0.0003 S.3     1  LIG1       -0.1409
      9 H           0.7602    3.1031   -0.0002 H       1  LIG1        0.1072
     10 C          -1.4855    2.0214    0.0010 C.3     1  LIG1       -0.0366
     11 H          -2.4003    1.7904    0.5056 H       1  LIG1        0.0279
     12 H          -1.6974    2.3090   -1.0077 H       1  LIG1        0.0279
     13 H          -0.9933    2.8265    0.5056 H       1  LIG1        0.0279
     14 C          -2.3194   -0.8299   -0.0001 C.ar    1  LIG1        0.0772
     15 C          -3.5352   -0.2220    0.0163 C.ar    1  LIG1        0.0351
     16 C          -4.5290   -1.2531    0.0088 C.ar    1  LIG1       -0.0099
     17 C          -3.8768   -2.4456   -0.0136 C.ar    1  LIG1        0.0685
     18 N          -2.5238   -2.1911   -0.0187 N.ar    1  LIG1       -0.3508
     19 H          -1.8082   -2.8808   -0.0339 H       1  LIG1        0.1660
     20 S          -3.7519    1.0596    0.0366 S.3     1  LIG1       -0.1403
     21 H          -5.0423    1.2848    0.0435 H       1  LIG1        0.1072
     22 C          -5.8182   -1.0838    0.0207 C.3     1  LIG1       -0.0366
     23 H          -6.2809   -1.9042    0.5283 H       1  LIG1        0.0279
     24 H          -6.1810   -1.0363   -0.9849 H       1  LIG1        0.0279
     25 H          -6.0535   -0.1718    0.5283 H       1  LIG1        0.0279
     26 C          -4.3399   -3.6602   -0.0280 C.ar    1  LIG1        0.0772
     27 C          -5.6207   -4.1157   -0.0381 C.ar    1  LIG1        0.0351
     28 C          -5.5656   -5.5466   -0.0513 C.ar    1  LIG1       -0.0099
     29 C          -4.2537   -5.9026   -0.0505 C.ar    1  LIG1        0.0685
     30 N          -3.4998   -4.7508   -0.0358 N.ar    1  LIG1       -0.3508
     31 H          -2.5065   -4.7126   -0.0320 H       1  LIG1        0.1660
     32 S          -6.6951   -3.3839   -0.0347 S.3     1  LIG1       -0.1403
     33 H          -7.7516   -4.1584   -0.0335 H       1  LIG1        0.1072
     34 C          -6.5810   -6.3589   -0.0626 C.3     1  LIG1       -0.0366
     35 H          -6.3171   -7.2666    0.4387 H       1  LIG1        0.0279
     36 H          -6.8526   -6.5763   -1.0745 H       1  LIG1        0.0279
     37 H          -7.4086   -5.9022    0.4387 H       1  LIG1        0.0279
     38 C          -3.6985   -7.0781   -0.0599 C.ar    1  LIG1        0.0768
     39 C          -4.2572   -8.3173   -0.0500 C.ar    1  LIG1        0.0344
     40 C          -3.1873   -9.2689   -0.0673 C.ar    1  LIG1       -0.0193
     41 C          -2.0218   -8.5693   -0.0887 C.ar    1  LIG1        0.0062
     42 N          -2.3303   -7.2277   -0.0838 N.ar    1  LIG1       -0.3584
     43 H          -1.6699   -6.4849   -0.0962 H       1  LIG1        0.1654
     44 H          -0.7897   -8.9833   -0.1097 H       1  LIG1        0.0810
     45 S          -5.5290   -8.5853   -0.0275 S.3     1  LIG1       -0.1403
     46 H          -5.7023   -9.8837   -0.0199 H       1  LIG1        0.1072
     47 C          -3.3047  -10.5639   -0.0637 C.3     1  LIG1       -0.0372
     48 H          -2.4667  -10.9967    0.4417 H       1  LIG1        0.0278
     49 H          -3.3371  -10.9220   -1.0715 H       1  LIG1        0.0278
     50 H          -4.2069  -10.8388    0.4417 H       1  LIG1        0.0278
@<TRIPOS>BOND
     1    36    34    1
     2    49    47    1
     3    12    10    1
     4    24    22    1
     5    44    41    1
     6    43    42    1
     7    41    42   ar
     8    41    40   ar
     9    42    38   ar
    10    40    47    1
    11    40    39   ar
    12    47    50    1
    13    47    48    1
    14    34    28    1
    15    34    37    1
    16    34    35    1
    17    38    29    1
    18    38    39   ar
    19    28    29   ar
    20    28    27   ar
    21    29    30   ar
    22    39    45    1
    23    27    32    1
    24    27    26   ar
    25    30    31    1
    26    30    26   ar
    27    32    33    1
    28    19    18    1
    29    26    17    1
    30    45    46    1
    31    18    17   ar
    32    18    14   ar
    33    17    16   ar
    34     2     8    1
    35     2     1   ar
    36     2     3   ar
    37     8     9    1
    38     6     5    1
    39     4    14    1
    40     4     5   ar
    41     4     3   ar
    42    14    15   ar
    43     5     1   ar
    44     1     7    1
    45     3    10    1
    46    10    13    1
    47    10    11    1
    48    16    15   ar
    49    16    22    1
    50    15    20    1
    51    22    25    1
    52    22    23    1
    53    20    21    1
