@<TRIPOS>MOLECULE
mol_data/noopt/geoms/mol2/13gl13gl13gl-13gl.out
 54 57 0 0 0
SMALL
GASTEIGER

@<TRIPOS>ATOM
      1 C           1.1215   -0.3259    0.0002 C.ar    1  LIG1        0.0191
      2 C           0.7176    0.9721   -0.0005 C.ar    1  LIG1        0.0645
      3 C          -0.7144    0.9744    0.0003 C.ar    1  LIG1        0.1598
      4 C          -1.1226   -0.3223   -0.0003 C.ar    1  LIG1        0.1074
      5 N          -0.0018   -1.1217    0.0001 N.ar    1  LIG1       -0.3555
      6 H          -0.0034   -2.1157   -0.0003 H       1  LIG1        0.1655
      7 H           2.3167   -0.8373    0.0007 H       1  LIG1        0.0819
      8 S           1.4918    2.0164   -0.0003 S.3     1  LIG1       -0.1377
      9 H           0.7602    3.1031   -0.0002 H       1  LIG1        0.1073
     10 O          -1.4853    2.0212    0.0010 O.3     1  LIG1       -0.4918
     11 C          -0.6829    3.2049    0.0012 C.3     1  LIG1        0.0789
     12 H          -1.3178    4.0662    0.0016 H       1  LIG1        0.0660
     13 H          -0.0650    3.2168    0.8747 H       1  LIG1        0.0660
     14 H          -0.0654    3.2174   -0.8726 H       1  LIG1        0.0660
     15 C          -2.3194   -0.8299   -0.0001 C.ar    1  LIG1        0.0840
     16 C          -3.5352   -0.2220    0.0163 C.ar    1  LIG1        0.0741
     17 C          -4.5290   -1.2531    0.0088 C.ar    1  LIG1        0.1605
     18 C          -3.8768   -2.4456   -0.0136 C.ar    1  LIG1        0.1079
     19 N          -2.5238   -2.1911   -0.0187 N.ar    1  LIG1       -0.3479
     20 H          -1.8082   -2.8808   -0.0339 H       1  LIG1        0.1661
     21 S          -3.7519    1.0596    0.0366 S.3     1  LIG1       -0.1370
     22 H          -5.0423    1.2848    0.0435 H       1  LIG1        0.1073
     23 O          -5.8179   -1.0839    0.0207 O.3     1  LIG1       -0.4918
     24 C          -6.1157    0.3148    0.0250 C.3     1  LIG1        0.0789
     25 H          -7.1766    0.4536    0.0346 H       1  LIG1        0.0660
     26 H          -5.6888    0.7677    0.8954 H       1  LIG1        0.0660
     27 H          -5.7044    0.7697   -0.8518 H       1  LIG1        0.0660
     28 C          -4.3399   -3.6602   -0.0280 C.ar    1  LIG1        0.0840
     29 C          -5.6206   -4.1159   -0.0215 C.ar    1  LIG1        0.0741
     30 C          -5.5656   -5.5467   -0.0437 C.ar    1  LIG1        0.1605
     31 C          -4.2537   -5.9024   -0.0646 C.ar    1  LIG1        0.1079
     32 N          -3.4998   -4.7505   -0.0546 N.ar    1  LIG1       -0.3479
     33 H          -2.5066   -4.7122   -0.0655 H       1  LIG1        0.1661
     34 S          -6.6950   -3.3844    0.0022 S.3     1  LIG1       -0.1370
     35 H          -7.7513   -4.1591    0.0102 H       1  LIG1        0.1073
     36 O          -6.5807   -6.3590   -0.0444 O.3     1  LIG1       -0.4918
     37 C          -7.7955   -5.6047   -0.0447 C.3     1  LIG1        0.0789
     38 H          -8.6307   -6.2736   -0.0454 H       1  LIG1        0.0660
     39 H          -7.8330   -4.9884    0.8292 H       1  LIG1        0.0660
     40 H          -7.8321   -4.9876   -0.9181 H       1  LIG1        0.0660
     41 C          -3.6986   -7.0777   -0.0891 C.ar    1  LIG1        0.0835
     42 C          -4.2572   -8.3170   -0.0894 C.ar    1  LIG1        0.0734
     43 C          -3.1874   -9.2683   -0.1219 C.ar    1  LIG1        0.1511
     44 C          -2.0221   -8.5685   -0.1418 C.ar    1  LIG1        0.0455
     45 N          -2.3305   -7.2269   -0.1213 N.ar    1  LIG1       -0.3555
     46 H          -1.6702   -6.4840   -0.1292 H       1  LIG1        0.1655
     47 H          -0.7901   -8.9822   -0.1732 H       1  LIG1        0.0845
     48 S          -5.5289   -8.5853   -0.0634 S.3     1  LIG1       -0.1370
     49 H          -5.7018   -9.8838   -0.0546 H       1  LIG1        0.1073
     50 O          -3.3048  -10.5630   -0.1313 O.3     1  LIG1       -0.4925
     51 C          -4.6904  -10.9166   -0.1348 C.3     1  LIG1        0.0789
     52 H          -4.7866  -11.9822   -0.1427 H       1  LIG1        0.0660
     53 H          -5.1613  -10.5225    0.7415 H       1  LIG1        0.0660
     54 H          -5.1601  -10.5097   -1.0058 H       1  LIG1        0.0660
@<TRIPOS>BOND
     1    54    51    1
     2    40    37    1
     3    14    11    1
     4    27    24    1
     5    47    44    1
     6    52    51    1
     7    44    43   ar
     8    44    45   ar
     9    51    50    1
    10    51    53    1
    11    50    43    1
    12    46    45    1
    13    43    42   ar
    14    45    41   ar
    15    42    41   ar
    16    42    48    1
    17    41    31    1
    18    33    32    1
    19    31    32   ar
    20    31    30   ar
    21    48    49    1
    22    32    28   ar
    23    38    37    1
    24    37    36    1
    25    37    39    1
    26    36    30    1
    27    30    29   ar
    28    20    19    1
    29    28    29   ar
    30    28    18    1
    31    29    34    1
    32    19    18   ar
    33    19    15   ar
    34    18    17   ar
    35     2     8    1
    36     2     1   ar
    37     2     3   ar
    38     4    15    1
    39     4     5   ar
    40     4     3   ar
    41     6     5    1
    42     8     9    1
    43    15    16   ar
    44     5     1   ar
    45     1     7    1
    46     3    10    1
    47    10    11    1
    48    11    12    1
    49    11    13    1
    50    34    35    1
    51    17    16   ar
    52    17    23    1
    53    16    21    1
    54    23    24    1
    55    24    25    1
    56    24    26    1
    57    21    22    1
