@<TRIPOS>MOLECULE
mol_data/noopt/geoms/mol2/13gl.out
 15 15 0 0 0
SMALL
GASTEIGER

@<TRIPOS>ATOM
      1 C           1.1215   -0.3259    0.0002 C.ar    1  LIG1        0.0186
      2 C           0.7176    0.9721   -0.0005 C.ar    1  LIG1        0.0638
      3 C          -0.7144    0.9744    0.0003 C.ar    1  LIG1        0.1504
      4 C          -1.1226   -0.3223   -0.0003 C.ar    1  LIG1        0.0450
      5 N          -0.0018   -1.1217    0.0001 N.ar    1  LIG1       -0.3630
      6 H          -0.0034   -2.1157   -0.0003 H       1  LIG1        0.1649
      7 H          -2.3194   -0.8299   -0.0001 H       1  LIG1        0.0844
      8 H           2.3167   -0.8373    0.0007 H       1  LIG1        0.0819
      9 S           1.4918    2.0164   -0.0003 S.3     1  LIG1       -0.1377
     10 H           0.7602    3.1031   -0.0002 H       1  LIG1        0.1073
     11 O          -1.4853    2.0212    0.0010 O.3     1  LIG1       -0.4925
     12 C          -0.6829    3.2049    0.0012 C.3     1  LIG1        0.0789
     13 H          -1.3178    4.0662    0.0016 H       1  LIG1        0.0660
     14 H          -0.0650    3.2168    0.8747 H       1  LIG1        0.0660
     15 H          -0.0654    3.2174   -0.8726 H       1  LIG1        0.0660
@<TRIPOS>BOND
     1    15    12    1
     2     2     9    1
     3     2     1   ar
     4     2     3   ar
     5     4     7    1
     6     4     5   ar
     7     4     3   ar
     8     6     5    1
     9     9    10    1
    10     5     1   ar
    11     1     8    1
    12     3    11    1
    13    11    12    1
    14    12    13    1
    15    12    14    1
