@<TRIPOS>MOLECULE
mol_data/noopt/geoms/mol2/13gl13gl.out
 28 29 0 0 0
SMALL
GASTEIGER

@<TRIPOS>ATOM
      1 C           1.1215   -0.3259    0.0002 C.ar    1  LIG1        0.0191
      2 C           0.7176    0.9721   -0.0005 C.ar    1  LIG1        0.0645
      3 C          -0.7144    0.9744    0.0003 C.ar    1  LIG1        0.1598
      4 C          -1.1226   -0.3223   -0.0003 C.ar    1  LIG1        0.1074
      5 N          -0.0018   -1.1217    0.0001 N.ar    1  LIG1       -0.3555
      6 H          -0.0034   -2.1157   -0.0003 H       1  LIG1        0.1655
      7 H           2.3167   -0.8373    0.0007 H       1  LIG1        0.0819
      8 S           1.4918    2.0164   -0.0003 S.3     1  LIG1       -0.1377
      9 H           0.7602    3.1031   -0.0002 H       1  LIG1        0.1073
     10 O          -1.4853    2.0212    0.0010 O.3     1  LIG1       -0.4918
     11 C          -0.6829    3.2049    0.0012 C.3     1  LIG1        0.0789
     12 H          -1.3178    4.0662    0.0016 H       1  LIG1        0.0660
     13 H          -0.0650    3.2168    0.8747 H       1  LIG1        0.0660
     14 H          -0.0654    3.2174   -0.8726 H       1  LIG1        0.0660
     15 C          -2.3194   -0.8299   -0.0001 C.ar    1  LIG1        0.0835
     16 C          -3.5352   -0.2220    0.0163 C.ar    1  LIG1        0.0734
     17 C          -4.5290   -1.2531    0.0088 C.ar    1  LIG1        0.1511
     18 C          -3.8768   -2.4456   -0.0136 C.ar    1  LIG1        0.0455
     19 N          -2.5238   -2.1911   -0.0187 N.ar    1  LIG1       -0.3555
     20 H          -1.8082   -2.8808   -0.0339 H       1  LIG1        0.1655
     21 H          -4.3399   -3.6602   -0.0280 H       1  LIG1        0.0845
     22 S          -3.7519    1.0596    0.0366 S.3     1  LIG1       -0.1370
     23 H          -5.0423    1.2848    0.0435 H       1  LIG1        0.1073
     24 O          -5.8179   -1.0839    0.0207 O.3     1  LIG1       -0.4925
     25 C          -6.1157    0.3148    0.0250 C.3     1  LIG1        0.0789
     26 H          -7.1766    0.4536    0.0346 H       1  LIG1        0.0660
     27 H          -5.6888    0.7677    0.8954 H       1  LIG1        0.0660
     28 H          -5.7044    0.7697   -0.8518 H       1  LIG1        0.0660
@<TRIPOS>BOND
     1    14    11    1
     2    28    25    1
     3    20    19    1
     4    21    18    1
     5    19    18   ar
     6    19    15   ar
     7    18    17   ar
     8     2     8    1
     9     2     1   ar
    10     2     3   ar
    11     4    15    1
    12     4     5   ar
    13     4     3   ar
    14     6     5    1
    15     8     9    1
    16    15    16   ar
    17     5     1   ar
    18     1     7    1
    19     3    10    1
    20    10    11    1
    21    11    12    1
    22    11    13    1
    23    17    16   ar
    24    17    24    1
    25    16    22    1
    26    24    25    1
    27    25    26    1
    28    25    27    1
    29    22    23    1
