@<TRIPOS>MOLECULE
mol_data/noopt/geoms/mol2/13gl13gl13gl-.out
 41 43 0 0 0
SMALL
GASTEIGER

@<TRIPOS>ATOM
      1 C           1.1215   -0.3259    0.0002 C.ar    1  LIG1        0.0191
      2 C           0.7176    0.9721   -0.0005 C.ar    1  LIG1        0.0645
      3 C          -0.7144    0.9744    0.0003 C.ar    1  LIG1        0.1598
      4 C          -1.1226   -0.3223   -0.0003 C.ar    1  LIG1        0.1074
      5 N          -0.0018   -1.1217    0.0001 N.ar    1  LIG1       -0.3555
      6 H          -0.0034   -2.1157   -0.0003 H       1  LIG1        0.1655
      7 H           2.3167   -0.8373    0.0007 H       1  LIG1        0.0819
      8 S           1.4918    2.0164   -0.0003 S.3     1  LIG1       -0.1377
      9 H           0.7602    3.1031   -0.0002 H       1  LIG1        0.1073
     10 O          -1.4853    2.0212    0.0010 O.3     1  LIG1       -0.4918
     11 C          -0.6829    3.2049    0.0012 C.3     1  LIG1        0.0789
     12 H          -1.3178    4.0662    0.0016 H       1  LIG1        0.0660
     13 H          -0.0650    3.2168    0.8747 H       1  LIG1        0.0660
     14 H          -0.0654    3.2174   -0.8726 H       1  LIG1        0.0660
     15 C          -2.3194   -0.8299   -0.0001 C.ar    1  LIG1        0.0840
     16 C          -3.5352   -0.2220    0.0163 C.ar    1  LIG1        0.0741
     17 C          -4.5290   -1.2531    0.0088 C.ar    1  LIG1        0.1605
     18 C          -3.8768   -2.4456   -0.0136 C.ar    1  LIG1        0.1079
     19 N          -2.5238   -2.1911   -0.0187 N.ar    1  LIG1       -0.3479
     20 H          -1.8082   -2.8808   -0.0339 H       1  LIG1        0.1661
     21 S          -3.7519    1.0596    0.0366 S.3     1  LIG1       -0.1370
     22 H          -5.0423    1.2848    0.0435 H       1  LIG1        0.1073
     23 O          -5.8179   -1.0839    0.0207 O.3     1  LIG1       -0.4918
     24 C          -6.1157    0.3148    0.0250 C.3     1  LIG1        0.0789
     25 H          -7.1766    0.4536    0.0346 H       1  LIG1        0.0660
     26 H          -5.6888    0.7677    0.8954 H       1  LIG1        0.0660
     27 H          -5.7044    0.7697   -0.8518 H       1  LIG1        0.0660
     28 C          -4.3399   -3.6602   -0.0280 C.ar    1  LIG1        0.0835
     29 C          -5.6206   -4.1159   -0.0215 C.ar    1  LIG1        0.0734
     30 C          -5.5656   -5.5467   -0.0437 C.ar    1  LIG1        0.1511
     31 C          -4.2537   -5.9024   -0.0646 C.ar    1  LIG1        0.0455
     32 N          -3.4998   -4.7505   -0.0546 N.ar    1  LIG1       -0.3555
     33 H          -2.5066   -4.7122   -0.0655 H       1  LIG1        0.1655
     34 H          -3.6986   -7.0777   -0.0891 H       1  LIG1        0.0845
     35 S          -6.6950   -3.3844    0.0022 S.3     1  LIG1       -0.1370
     36 H          -7.7513   -4.1591    0.0102 H       1  LIG1        0.1073
     37 O          -6.5807   -6.3590   -0.0444 O.3     1  LIG1       -0.4925
     38 C          -7.7955   -5.6047   -0.0447 C.3     1  LIG1        0.0789
     39 H          -8.6307   -6.2736   -0.0454 H       1  LIG1        0.0660
     40 H          -7.8330   -4.9884    0.8292 H       1  LIG1        0.0660
     41 H          -7.8321   -4.9876   -0.9181 H       1  LIG1        0.0660
@<TRIPOS>BOND
     1    41    38    1
     2    14    11    1
     3    27    24    1
     4    34    31    1
     5    33    32    1
     6    31    32   ar
     7    31    30   ar
     8    32    28   ar
     9    39    38    1
    10    38    37    1
    11    38    40    1
    12    37    30    1
    13    30    29   ar
    14    20    19    1
    15    28    29   ar
    16    28    18    1
    17    29    35    1
    18    19    18   ar
    19    19    15   ar
    20    18    17   ar
    21     2     8    1
    22     2     1   ar
    23     2     3   ar
    24     6     5    1
    25     4    15    1
    26     4     5   ar
    27     4     3   ar
    28     8     9    1
    29    15    16   ar
    30     5     1   ar
    31     1     7    1
    32     3    10    1
    33    10    11    1
    34    11    12    1
    35    11    13    1
    36    35    36    1
    37    17    16   ar
    38    17    23    1
    39    16    21    1
    40    23    24    1
    41    24    25    1
    42    24    26    1
    43    21    22    1
