@<TRIPOS>MOLECULE
mol_data/noopt/geoms/mol2/13gl13gl-13gl-13gl.out
 54 57 0 0 0
SMALL
GASTEIGER

@<TRIPOS>ATOM
      1 C           1.1215   -0.3259    0.0002 C.ar    1  LIG1        0.0191
      2 C           0.7176    0.9721   -0.0005 C.ar    1  LIG1        0.0645
      3 C          -0.7144    0.9744    0.0003 C.ar    1  LIG1        0.1598
      4 C          -1.1226   -0.3223   -0.0003 C.ar    1  LIG1        0.1074
      5 N          -0.0018   -1.1217    0.0001 N.ar    1  LIG1       -0.3555
      6 H          -0.0034   -2.1157   -0.0003 H       1  LIG1        0.1655
      7 H           2.3167   -0.8373    0.0007 H       1  LIG1        0.0819
      8 S           1.4918    2.0164   -0.0003 S.3     1  LIG1       -0.1377
      9 H           0.7602    3.1031   -0.0002 H       1  LIG1        0.1073
     10 O          -1.4853    2.0212    0.0010 O.3     1  LIG1       -0.4918
     11 C          -0.6829    3.2049    0.0012 C.3     1  LIG1        0.0789
     12 H          -1.3178    4.0662    0.0016 H       1  LIG1        0.0660
     13 H          -0.0650    3.2168    0.8747 H       1  LIG1        0.0660
     14 H          -0.0654    3.2174   -0.8726 H       1  LIG1        0.0660
     15 C          -2.3194   -0.8299   -0.0001 C.ar    1  LIG1        0.0840
     16 C          -3.5353   -0.2219   -0.0003 C.ar    1  LIG1        0.0741
     17 C          -4.5290   -1.2530    0.0012 C.ar    1  LIG1        0.1605
     18 C          -3.8767   -2.4457    0.0005 C.ar    1  LIG1        0.1079
     19 N          -2.5238   -2.1913    0.0002 N.ar    1  LIG1       -0.3479
     20 H          -1.8081   -2.8811   -0.0004 H       1  LIG1        0.1661
     21 S          -3.7520    1.0598   -0.0003 S.3     1  LIG1       -0.1370
     22 H          -5.0425    1.2851   -0.0003 H       1  LIG1        0.1073
     23 O          -5.8180   -1.0837    0.0025 O.3     1  LIG1       -0.4918
     24 C          -6.1157    0.3150    0.0029 C.3     1  LIG1        0.0789
     25 H          -7.1766    0.4539    0.0038 H       1  LIG1        0.0660
     26 H          -5.6958    0.7688    0.8763 H       1  LIG1        0.0660
     27 H          -5.6973    0.7690   -0.8710 H       1  LIG1        0.0660
     28 C          -4.3398   -3.6604    0.0012 C.ar    1  LIG1        0.0840
     29 C          -5.6205   -4.1161    0.0179 C.ar    1  LIG1        0.0741
     30 C          -5.5654   -5.5470    0.0109 C.ar    1  LIG1        0.1605
     31 C          -4.2536   -5.9029   -0.0115 C.ar    1  LIG1        0.1079
     32 N          -3.4998   -4.7509   -0.0171 N.ar    1  LIG1       -0.3479
     33 H          -2.5066   -4.7126   -0.0325 H       1  LIG1        0.1661
     34 S          -6.6948   -3.3844    0.0381 S.3     1  LIG1       -0.1370
     35 H          -7.7512   -4.1590    0.0449 H       1  LIG1        0.1073
     36 O          -6.5804   -6.3593    0.0232 O.3     1  LIG1       -0.4918
     37 C          -7.7953   -5.6050    0.0276 C.3     1  LIG1        0.0789
     38 H          -8.6304   -6.2739    0.0376 H       1  LIG1        0.0660
     39 H          -7.8259   -4.9833    0.8980 H       1  LIG1        0.0660
     40 H          -7.8387   -4.9934   -0.8492 H       1  LIG1        0.0660
     41 C          -3.6985   -7.0783   -0.0256 C.ar    1  LIG1        0.0835
     42 C          -4.2572   -8.3176   -0.0188 C.ar    1  LIG1        0.0734
     43 C          -3.1873   -9.2692   -0.0408 C.ar    1  LIG1        0.1511
     44 C          -2.0219   -8.5695   -0.0617 C.ar    1  LIG1        0.0455
     45 N          -2.3303   -7.2279   -0.0520 N.ar    1  LIG1       -0.3555
     46 H          -1.6699   -6.4851   -0.0630 H       1  LIG1        0.1655
     47 H          -0.7898   -8.9835   -0.0859 H       1  LIG1        0.0845
     48 S          -5.5290   -8.5856    0.0048 S.3     1  LIG1       -0.1370
     49 H          -5.7022   -9.8840    0.0127 H       1  LIG1        0.1073
     50 O          -3.3048  -10.5639   -0.0412 O.3     1  LIG1       -0.4925
     51 C          -4.6904  -10.9174   -0.0414 C.3     1  LIG1        0.0789
     52 H          -4.7866  -11.9831   -0.0418 H       1  LIG1        0.0660
     53 H          -5.1608  -10.5172    0.8325 H       1  LIG1        0.0660
     54 H          -5.1607  -10.5165   -0.9148 H       1  LIG1        0.0660
@<TRIPOS>BOND
     1    54    51    1
     2    14    11    1
     3    27    24    1
     4    40    37    1
     5    47    44    1
     6    46    45    1
     7    44    45   ar
     8    44    43   ar
     9    45    41   ar
    10    52    51    1
    11    51    50    1
    12    51    53    1
    13    50    43    1
    14    43    42   ar
    15    33    32    1
    16    41    42   ar
    17    41    31    1
    18    42    48    1
    19    32    31   ar
    20    32    28   ar
    21    31    30   ar
    22     2     8    1
    23     2     1   ar
    24     2     3   ar
    25    20    19    1
    26    16    21    1
    27    16    15   ar
    28    16    17   ar
    29     8     9    1
    30     6     5    1
    31     4    15    1
    32     4     5   ar
    33     4     3   ar
    34    21    22    1
    35    15    19   ar
    36     5     1   ar
    37    19    18   ar
    38     1     7    1
    39     3    10    1
    40    18    17   ar
    41    18    28    1
    42    10    11    1
    43    11    12    1
    44    11    13    1
    45    17    23    1
    46    28    29   ar
    47    23    24    1
    48    24    25    1
    49    24    26    1
    50    48    49    1
    51    30    29   ar
    52    30    36    1
    53    29    34    1
    54    36    37    1
    55    37    38    1
    56    37    39    1
    57    34    35    1
