@<TRIPOS>MOLECULE
mol_data/noopt/geoms/mol2/13gl13gl13gl13gl.out
 54 57 0 0 0
SMALL
GASTEIGER

@<TRIPOS>ATOM
      1 C           1.1215   -0.3259    0.0002 C.ar    1  LIG1        0.0191
      2 C           0.7176    0.9721   -0.0005 C.ar    1  LIG1        0.0645
      3 C          -0.7144    0.9744    0.0003 C.ar    1  LIG1        0.1598
      4 C          -1.1226   -0.3223   -0.0003 C.ar    1  LIG1        0.1074
      5 N          -0.0018   -1.1217    0.0001 N.ar    1  LIG1       -0.3555
      6 H          -0.0034   -2.1157   -0.0003 H       1  LIG1        0.1655
      7 H           2.3167   -0.8373    0.0007 H       1  LIG1        0.0819
      8 S           1.4918    2.0164   -0.0003 S.3     1  LIG1       -0.1377
      9 H           0.7602    3.1031   -0.0002 H       1  LIG1        0.1073
     10 O          -1.4853    2.0212    0.0010 O.3     1  LIG1       -0.4918
     11 C          -0.6829    3.2049    0.0012 C.3     1  LIG1        0.0789
     12 H          -1.3178    4.0662    0.0016 H       1  LIG1        0.0660
     13 H          -0.0650    3.2168    0.8747 H       1  LIG1        0.0660
     14 H          -0.0654    3.2174   -0.8726 H       1  LIG1        0.0660
     15 C          -2.3194   -0.8299   -0.0001 C.ar    1  LIG1        0.0840
     16 C          -3.5352   -0.2220    0.0163 C.ar    1  LIG1        0.0741
     17 C          -4.5290   -1.2531    0.0088 C.ar    1  LIG1        0.1605
     18 C          -3.8768   -2.4456   -0.0136 C.ar    1  LIG1        0.1079
     19 N          -2.5238   -2.1911   -0.0187 N.ar    1  LIG1       -0.3479
     20 H          -1.8082   -2.8808   -0.0339 H       1  LIG1        0.1661
     21 S          -3.7519    1.0596    0.0366 S.3     1  LIG1       -0.1370
     22 H          -5.0423    1.2848    0.0435 H       1  LIG1        0.1073
     23 O          -5.8179   -1.0839    0.0207 O.3     1  LIG1       -0.4918
     24 C          -6.1157    0.3148    0.0250 C.3     1  LIG1        0.0789
     25 H          -7.1766    0.4536    0.0346 H       1  LIG1        0.0660
     26 H          -5.6888    0.7677    0.8954 H       1  LIG1        0.0660
     27 H          -5.7044    0.7697   -0.8518 H       1  LIG1        0.0660
     28 C          -4.3399   -3.6602   -0.0280 C.ar    1  LIG1        0.0840
     29 C          -5.6207   -4.1157   -0.0381 C.ar    1  LIG1        0.0741
     30 C          -5.5656   -5.5466   -0.0513 C.ar    1  LIG1        0.1605
     31 C          -4.2537   -5.9026   -0.0505 C.ar    1  LIG1        0.1079
     32 N          -3.4998   -4.7508   -0.0358 N.ar    1  LIG1       -0.3479
     33 H          -2.5065   -4.7126   -0.0320 H       1  LIG1        0.1661
     34 S          -6.6951   -3.3839   -0.0347 S.3     1  LIG1       -0.1370
     35 H          -7.7516   -4.1584   -0.0335 H       1  LIG1        0.1073
     36 O          -6.5808   -6.3587   -0.0626 O.3     1  LIG1       -0.4918
     37 C          -7.7955   -5.6043   -0.0668 C.3     1  LIG1        0.0789
     38 H          -8.6307   -6.2730   -0.0762 H       1  LIG1        0.0660
     39 H          -7.8385   -4.9924    0.8100 H       1  LIG1        0.0660
     40 H          -7.8264   -4.9828   -0.9372 H       1  LIG1        0.0660
     41 C          -3.6985   -7.0781   -0.0599 C.ar    1  LIG1        0.0835
     42 C          -4.2572   -8.3173   -0.0500 C.ar    1  LIG1        0.0734
     43 C          -3.1873   -9.2689   -0.0673 C.ar    1  LIG1        0.1511
     44 C          -2.0218   -8.5693   -0.0887 C.ar    1  LIG1        0.0455
     45 N          -2.3303   -7.2277   -0.0838 N.ar    1  LIG1       -0.3555
     46 H          -1.6699   -6.4849   -0.0962 H       1  LIG1        0.1655
     47 H          -0.7897   -8.9833   -0.1097 H       1  LIG1        0.0845
     48 S          -5.5290   -8.5853   -0.0275 S.3     1  LIG1       -0.1370
     49 H          -5.7023   -9.8837   -0.0199 H       1  LIG1        0.1073
     50 O          -3.3047  -10.5637   -0.0637 O.3     1  LIG1       -0.4925
     51 C          -4.6903  -10.9172   -0.0624 C.3     1  LIG1        0.0789
     52 H          -4.7865  -11.9829   -0.0596 H       1  LIG1        0.0660
     53 H          -5.1604  -10.5144    0.8103 H       1  LIG1        0.0660
     54 H          -5.1608  -10.5189   -0.9370 H       1  LIG1        0.0660
@<TRIPOS>BOND
     1    40    37    1
     2    54    51    1
     3    14    11    1
     4    27    24    1
     5    47    44    1
     6    46    45    1
     7    44    45   ar
     8    44    43   ar
     9    45    41   ar
    10    38    37    1
    11    43    50    1
    12    43    42   ar
    13    37    36    1
    14    37    39    1
    15    50    51    1
    16    36    30    1
    17    51    52    1
    18    51    53    1
    19    41    31    1
    20    41    42   ar
    21    30    31   ar
    22    30    29   ar
    23    31    32   ar
    24    42    48    1
    25    29    34    1
    26    29    28   ar
    27    32    33    1
    28    32    28   ar
    29    34    35    1
    30    20    19    1
    31    28    18    1
    32    48    49    1
    33    19    18   ar
    34    19    15   ar
    35    18    17   ar
    36     2     8    1
    37     2     1   ar
    38     2     3   ar
    39     4    15    1
    40     4     5   ar
    41     4     3   ar
    42     6     5    1
    43     8     9    1
    44    15    16   ar
    45     5     1   ar
    46     1     7    1
    47     3    10    1
    48    10    11    1
    49    11    12    1
    50    11    13    1
    51    17    16   ar
    52    17    23    1
    53    16    21    1
    54    23    24    1
    55    24    25    1
    56    24    26    1
    57    21    22    1
