@<TRIPOS>MOLECULE
mol_data/noopt/geoms/mol2/13ha13ha-4ha13ha.out
 44 47 0 0 0
SMALL
GASTEIGER

@<TRIPOS>ATOM
      1 C           1.1215   -0.3259    0.0002 C.ar    1  LIG1        0.0230
      2 C           0.7176    0.9721   -0.0005 C.ar    1  LIG1        0.0427
      3 C          -0.7144    0.9744    0.0003 C.ar    1  LIG1       -0.0142
      4 C          -1.1226   -0.3223   -0.0003 C.ar    1  LIG1        0.0665
      5 N          -0.0018   -1.1217    0.0001 N.ar    1  LIG1       -0.3578
      6 H          -0.0034   -2.1157   -0.0003 H       1  LIG1        0.1654
      7 H           2.3167   -0.8373    0.0007 H       1  LIG1        0.0826
      8 N           1.4918    2.0164   -0.0003 N.pl3   1  LIG1       -0.3568
      9 H           2.3463    1.7980   -0.4717 H       1  LIG1        0.1424
     10 H           1.0345    2.7705   -0.4717 H       1  LIG1        0.1424
     11 H          -1.4853    2.0212    0.0010 H       1  LIG1        0.0658
     12 C          -2.3194   -0.8299   -0.0001 C.ar    1  LIG1        0.0843
     13 C          -2.7274   -2.1266   -0.0005 C.ar    1  LIG1        0.0522
     14 C          -4.1594   -2.1244    0.0011 C.ar    1  LIG1       -0.0150
     15 C          -4.5635   -0.8264    0.0006 C.ar    1  LIG1        0.0505
     16 N          -3.4402   -0.0305    0.0003 N.ar    1  LIG1       -0.3515
     17 H          -3.4386    0.9635   -0.0001 H       1  LIG1        0.1660
     18 N          -1.9565   -3.1734   -0.0006 N.pl3   1  LIG1       -0.3563
     19 H          -2.4164   -3.9259   -0.4720 H       1  LIG1        0.1424
     20 H          -1.1015   -2.9576   -0.4721 H       1  LIG1        0.1424
     21 H          -4.9336   -3.1687    0.0023 H       1  LIG1        0.0657
     22 C          -5.9236    1.0852    0.0026 C.ar    1  LIG1        0.0344
     23 C          -7.2385    1.5895    0.0050 C.ar    1  LIG1       -0.0312
     24 C          -5.7587   -0.3150    0.0014 C.ar    1  LIG1        0.0190
     25 C          -8.3419    0.7391    0.0056 C.ar    1  LIG1        0.0019
     26 H          -7.3885    2.6668    0.0062 H       1  LIG1        0.0643
     27 C          -6.8598   -1.1644    0.0020 C.ar    1  LIG1       -0.0502
     28 C          -8.1582   -0.6442    0.0040 C.ar    1  LIG1       -0.0518
     29 H          -6.7065   -2.2406    0.0011 H       1  LIG1        0.0625
     30 N          -4.9342    1.9285    0.0020 N.pl3   1  LIG1       -0.3574
     31 H          -4.1511    1.5232   -0.4696 H       1  LIG1        0.1423
     32 H          -5.2104    2.7660   -0.4697 H       1  LIG1        0.1423
     33 H          -9.1838   -1.4431    0.0046 H       1  LIG1        0.0624
     34 C          -9.5420    1.2389    0.0077 C.ar    1  LIG1        0.0675
     35 C          -9.9585    2.5329    0.0088 C.ar    1  LIG1        0.0502
     36 C         -11.3904    2.5213    0.0122 C.ar    1  LIG1       -0.0231
     37 C         -11.7860    1.2207    0.0113 C.ar    1  LIG1        0.0040
     38 N         -10.6575    0.4322    0.0090 N.ar    1  LIG1       -0.3592
     39 H         -10.6495   -0.5617    0.0079 H       1  LIG1        0.1654
     40 H         -12.9778    0.7015    0.0134 H       1  LIG1        0.0807
     41 N          -9.1944    3.5847    0.0084 N.pl3   1  LIG1       -0.3563
     42 H          -8.3380    3.3744   -0.4631 H       1  LIG1        0.1424
     43 H          -9.6591    4.3341   -0.4632 H       1  LIG1        0.1424
     44 H         -12.1714    3.5606    0.0152 H       1  LIG1        0.0651
@<TRIPOS>BOND
     1    20    18    1
     2    19    18    1
     3    10     8    1
     4     9     8    1
     5    32    30    1
     6    31    30    1
     7    43    41    1
     8    42    41    1
     9    18    13    1
    10     2     8    1
    11     2     1   ar
    12     2     3   ar
    13    13    12   ar
    14    13    14   ar
    15     4    12    1
    16     4     5   ar
    17     4     3   ar
    18     6     5    1
    19    17    16    1
    20    12    16   ar
    21     5     1   ar
    22     1     7    1
    23     3    11    1
    24    16    15   ar
    25    15    14   ar
    26    15    24    1
    27    14    21    1
    28    29    27    1
    29    24    27   ar
    30    24    22   ar
    31    30    22    1
    32    27    28   ar
    33    22    23   ar
    34    28    33    1
    35    28    25   ar
    36    23    25   ar
    37    23    26    1
    38    25    34    1
    39    34    35   ar
    40    34    38   ar
    41    39    38    1
    42    41    35    1
    43    35    36   ar
    44    38    37   ar
    45    37    36   ar
    46    37    40    1
    47    36    44    1
