@<TRIPOS>MOLECULE
mol_data/noopt/geoms/mol2/13ha13ha-13ha13ha-.out
 42 45 0 0 0
SMALL
GASTEIGER

@<TRIPOS>ATOM
      1 C           1.1215   -0.3259    0.0002 C.ar    1  LIG1        0.0230
      2 C           0.7176    0.9721   -0.0005 C.ar    1  LIG1        0.0427
      3 C          -0.7144    0.9744    0.0003 C.ar    1  LIG1       -0.0142
      4 C          -1.1226   -0.3223   -0.0003 C.ar    1  LIG1        0.0665
      5 N          -0.0018   -1.1217    0.0001 N.ar    1  LIG1       -0.3578
      6 H          -0.0034   -2.1157   -0.0003 H       1  LIG1        0.1654
      7 H           2.3167   -0.8373    0.0007 H       1  LIG1        0.0826
      8 N           1.4918    2.0164   -0.0003 N.pl3   1  LIG1       -0.3568
      9 H           2.3463    1.7980   -0.4717 H       1  LIG1        0.1424
     10 H           1.0345    2.7705   -0.4717 H       1  LIG1        0.1424
     11 H          -1.4853    2.0212    0.0010 H       1  LIG1        0.0658
     12 C          -2.3194   -0.8299   -0.0001 C.ar    1  LIG1        0.0843
     13 C          -2.7274   -2.1266   -0.0005 C.ar    1  LIG1        0.0523
     14 C          -4.1594   -2.1244    0.0011 C.ar    1  LIG1       -0.0135
     15 C          -4.5635   -0.8264    0.0006 C.ar    1  LIG1        0.0670
     16 N          -3.4402   -0.0305    0.0003 N.ar    1  LIG1       -0.3504
     17 H          -3.4386    0.9635   -0.0001 H       1  LIG1        0.1660
     18 N          -1.9565   -3.1734   -0.0006 N.pl3   1  LIG1       -0.3563
     19 H          -2.4164   -3.9259   -0.4720 H       1  LIG1        0.1424
     20 H          -1.1015   -2.9576   -0.4721 H       1  LIG1        0.1424
     21 H          -4.9336   -3.1687    0.0023 H       1  LIG1        0.0658
     22 C          -5.7587   -0.3150    0.0014 C.ar    1  LIG1        0.0843
     23 C          -6.1626    0.9830    0.0016 C.ar    1  LIG1        0.0523
     24 C          -7.5946    0.9853    0.0038 C.ar    1  LIG1       -0.0135
     25 C          -8.0028   -0.3114    0.0030 C.ar    1  LIG1        0.0670
     26 N          -6.8820   -1.1108    0.0021 N.ar    1  LIG1       -0.3504
     27 H          -6.8836   -2.1048    0.0013 H       1  LIG1        0.1660
     28 N          -5.3884    2.0273    0.0015 N.pl3   1  LIG1       -0.3563
     29 H          -4.5340    1.8088   -0.4699 H       1  LIG1        0.1424
     30 H          -5.8458    2.7813   -0.4699 H       1  LIG1        0.1424
     31 H          -8.3655    2.0321    0.0056 H       1  LIG1        0.0658
     32 C          -9.1996   -0.8190    0.0041 C.ar    1  LIG1        0.0839
     33 C          -9.6076   -2.1157    0.0044 C.ar    1  LIG1        0.0516
     34 C         -11.0396   -2.1135    0.0069 C.ar    1  LIG1       -0.0230
     35 C         -11.4437   -0.8155    0.0063 C.ar    1  LIG1        0.0040
     36 N         -10.3204   -0.0196    0.0051 N.ar    1  LIG1       -0.3580
     37 H         -10.3188    0.9744    0.0043 H       1  LIG1        0.1654
     38 H         -12.6389   -0.3041    0.0077 H       1  LIG1        0.0807
     39 N          -8.8367   -3.1625    0.0040 N.pl3   1  LIG1       -0.3563
     40 H          -9.2966   -3.9150   -0.4675 H       1  LIG1        0.1424
     41 H          -7.9817   -2.9466   -0.4675 H       1  LIG1        0.1424
     42 H         -11.8138   -3.1578    0.0089 H       1  LIG1        0.0651
@<TRIPOS>BOND
     1    20    18    1
     2    19    18    1
     3    10     8    1
     4     9     8    1
     5    30    28    1
     6    29    28    1
     7    41    39    1
     8    40    39    1
     9    18    13    1
    10     2     8    1
    11     2     1   ar
    12     2     3   ar
    13    13    12   ar
    14    13    14   ar
    15     6     5    1
    16     4    12    1
    17     4     5   ar
    18     4     3   ar
    19    17    16    1
    20    12    16   ar
    21     5     1   ar
    22     1     7    1
    23     3    11    1
    24    16    15   ar
    25    15    14   ar
    26    15    22    1
    27    14    21    1
    28    27    26    1
    29    22    23   ar
    30    22    26   ar
    31    28    23    1
    32    23    24   ar
    33    26    25   ar
    34    25    24   ar
    35    25    32    1
    36    24    31    1
    37    39    33    1
    38    32    33   ar
    39    32    36   ar
    40    37    36    1
    41    33    34   ar
    42    36    35   ar
    43    35    34   ar
    44    35    38    1
    45    34    42    1
