@<TRIPOS>MOLECULE
mol_data/noopt/geoms/mol2/13ha6dd(210)12af(320)4fl.out
 46 49 0 0 0
SMALL
GASTEIGER

@<TRIPOS>ATOM
      1 C           1.1215   -0.3259    0.0002 C.ar    1  LIG1        0.0230
      2 C           0.7176    0.9721   -0.0005 C.ar    1  LIG1        0.0427
      3 C          -0.7144    0.9744    0.0003 C.ar    1  LIG1       -0.0156
      4 C          -1.1226   -0.3223   -0.0003 C.ar    1  LIG1        0.0510
      5 N          -0.0018   -1.1217    0.0001 N.ar    1  LIG1       -0.3590
      6 H          -0.0034   -2.1157   -0.0003 H       1  LIG1        0.1654
      7 H           2.3167   -0.8373    0.0007 H       1  LIG1        0.0826
      8 N           1.4918    2.0164   -0.0003 N.pl3   1  LIG1       -0.3568
      9 H           2.3463    1.7980   -0.4717 H       1  LIG1        0.1424
     10 H           1.0345    2.7705   -0.4717 H       1  LIG1        0.1424
     11 H          -1.4853    2.0212    0.0010 H       1  LIG1        0.0657
     12 C          -3.3846   -0.1394    0.6064 C.ar    1  LIG1        0.1500
     13 C          -2.3194   -0.8299   -0.0001 C.ar    1  LIG1        0.0354
     14 C          -2.5794   -2.0647   -0.5973 C.ar    1  LIG1       -0.0303
     15 C          -3.8827   -2.5639   -0.5688 C.ar    1  LIG1        0.0814
     16 C          -4.8810   -1.7992    0.0623 C.ar    1  LIG1        0.1249
     17 N          -4.6478   -0.6061    0.6432 N.ar    1  LIG1       -0.2313
     18 H          -1.7722   -2.6337   -1.0801 H       1  LIG1        0.0638
     19 N          -3.0228    2.0305    1.6771 N.1     1  LIG1       -0.1893
     20 C          -3.1924    1.0136    1.1753 C.1     1  LIG1        0.1198
     21 N          -4.4345   -4.7184   -1.5883 N.1     1  LIG1       -0.1908
     22 C          -4.1759   -3.7087   -1.1105 C.1     1  LIG1        0.1014
     23 C          -6.1093   -2.2215    0.1146 C.ar    1  LIG1        0.1587
     24 C          -7.3138   -1.8114   -0.4183 C.ar    1  LIG1        0.0280
     25 C          -8.3139   -2.7501    0.0459 C.ar    1  LIG1        0.1634
     26 C          -7.6539   -3.6721    0.8320 C.ar    1  LIG1        0.1805
     27 O          -6.2935   -3.3675    0.8895 O.2     1  LIG1       -0.4493
     28 H          -7.5358   -0.7877   -1.1883 H       1  LIG1        0.0693
     29 O          -9.5818   -2.7086   -0.2385 O.3     1  LIG1       -0.5032
     30 H          -9.9239   -3.6028   -0.3085 H       1  LIG1        0.2923
     31 C          -9.3461   -4.9164    1.8771 C.ar    1  LIG1        0.1278
     32 C          -9.6675   -6.0736    2.6124 C.ar    1  LIG1       -0.0160
     33 C          -7.9981   -4.7264    1.5100 C.ar    1  LIG1        0.0657
     34 C          -8.6917   -7.0024    2.9671 C.ar    1  LIG1       -0.0165
     35 H         -10.7016   -6.2397    2.9061 H       1  LIG1        0.0655
     36 C          -7.0236   -5.6533    1.8639 C.ar    1  LIG1       -0.0057
     37 C          -7.3628   -6.7970    2.5943 C.ar    1  LIG1        0.1210
     38 H          -5.9910   -5.4842    1.5691 H       1  LIG1        0.0662
     39 H          -9.0238   -8.0600    3.6463 H       1  LIG1        0.0655
     40 O         -10.3002   -4.0864    1.5754 O.3     1  LIG1       -0.5061
     41 H         -11.1293   -4.5646    1.5010 H       1  LIG1        0.2922
     42 O          -6.4475   -7.6598    2.9224 O.3     1  LIG1       -0.4951
     43 C          -7.0361   -8.9575    3.0428 C.3     1  LIG1        0.0788
     44 H          -6.2824   -9.6674    3.3127 H       1  LIG1        0.0660
     45 H          -7.7935   -8.9369    3.7983 H       1  LIG1        0.0660
     46 H          -7.4728   -9.2393    2.1075 H       1  LIG1        0.0660
@<TRIPOS>BOND
     1    21    22    3
     2    28    24    1
     3    22    15    1
     4    18    14    1
     5    14    15   ar
     6    14    13   ar
     7    15    16   ar
     8    10     8    1
     9     9     8    1
    10    24    25   ar
    11    24    23   ar
    12    30    29    1
    13    29    25    1
    14     2     8    1
    15     2     1   ar
    16     2     3   ar
    17     6     5    1
    18     4    13    1
    19     4     5   ar
    20     4     3   ar
    21    13    12   ar
    22     5     1   ar
    23     1     7    1
    24     3    11    1
    25    25    26   ar
    26    16    23    1
    27    16    17   ar
    28    23    27   ar
    29    12    17   ar
    30    12    20    1
    31    26    27   ar
    32    26    33    1
    33    20    19    3
    34    41    40    1
    35    33    36   ar
    36    33    31   ar
    37    38    36    1
    38    40    31    1
    39    36    37   ar
    40    31    32   ar
    41    46    43    1
    42    37    42    1
    43    37    34   ar
    44    32    35    1
    45    32    34   ar
    46    42    43    1
    47    34    39    1
    48    43    44    1
    49    43    45    1
