@<TRIPOS>MOLECULE
mol_data/noopt/geoms/mol2/13ha12fl13af13dd-.out
 43 46 0 0 0
SMALL
GASTEIGER

@<TRIPOS>ATOM
      1 C           1.1215   -0.3259    0.0002 C.ar    1  LIG1        0.0231
      2 C           0.7176    0.9721   -0.0005 C.ar    1  LIG1        0.0428
      3 C          -0.7144    0.9744    0.0003 C.ar    1  LIG1       -0.0126
      4 C          -1.1226   -0.3223   -0.0003 C.ar    1  LIG1        0.0877
      5 N          -0.0018   -1.1217    0.0001 N.ar    1  LIG1       -0.3565
      6 H          -0.0034   -2.1157   -0.0003 H       1  LIG1        0.1655
      7 H           2.3167   -0.8373    0.0007 H       1  LIG1        0.0826
      8 N           1.4918    2.0164   -0.0003 N.pl3   1  LIG1       -0.3568
      9 H           2.3463    1.7980   -0.4717 H       1  LIG1        0.1424
     10 H           1.0345    2.7705   -0.4717 H       1  LIG1        0.1424
     11 H          -1.4853    2.0212    0.0010 H       1  LIG1        0.0658
     12 C          -2.3194   -0.8299   -0.0001 C.ar    1  LIG1        0.1969
     13 C          -3.6024   -0.3233    0.0148 C.ar    1  LIG1        0.2076
     14 C          -4.4979   -1.4613    0.0044 C.ar    1  LIG1        0.2098
     15 C          -3.7022   -2.5883   -0.0164 C.ar    1  LIG1        0.1971
     16 O          -2.3551   -2.2249   -0.0196 O.2     1  LIG1       -0.4443
     17 O          -3.9648    0.9250    0.0347 O.3     1  LIG1       -0.5008
     18 H          -4.9232    0.9804    0.0395 H       1  LIG1        0.2924
     19 O          -5.7966   -1.4036    0.0131 O.3     1  LIG1       -0.4884
     20 C          -6.2135   -0.0357    0.0162 C.3     1  LIG1        0.0791
     21 H          -7.2825    0.0113    0.0233 H       1  LIG1        0.0660
     22 H          -5.8293    0.4523    0.8876 H       1  LIG1        0.0660
     23 H          -5.8408    0.4528   -0.8597 H       1  LIG1        0.0660
     24 C          -3.9133   -3.8710   -0.0331 C.ar    1  LIG1        0.0900
     25 C          -5.0772   -4.5732   -0.0448 C.ar    1  LIG1        0.0090
     26 C          -4.7373   -5.9642   -0.0604 C.ar    1  LIG1        0.1442
     27 C          -3.3807   -6.0508   -0.0593 C.ar    1  LIG1        0.1067
     28 N          -2.8722   -4.7716   -0.0421 N.ar    1  LIG1       -0.3476
     29 H          -1.9066   -4.5357   -0.0377 H       1  LIG1        0.1661
     30 H          -6.2762   -4.0709   -0.0408 H       1  LIG1        0.0677
     31 O          -5.5697   -6.9627   -0.0736 O.3     1  LIG1       -0.5046
     32 H          -5.0797   -7.7883   -0.0769 H       1  LIG1        0.2922
     33 C          -2.6018   -7.0916   -0.0703 C.ar    1  LIG1        0.0854
     34 C          -2.9017   -8.4175   -0.0781 C.ar    1  LIG1        0.0958
     35 C          -1.6631   -9.1361   -0.0880 C.ar    1  LIG1        0.0870
     36 C          -0.6608   -8.2177   -0.0875 C.ar    1  LIG1        0.0210
     37 N          -1.2311   -6.9648   -0.0762 N.ar    1  LIG1       -0.3572
     38 H          -0.7323   -6.1050   -0.0735 H       1  LIG1        0.1655
     39 H           0.6294   -8.3771   -0.0946 H       1  LIG1        0.0820
     40 N          -5.1468   -9.3899   -0.0732 N.1     1  LIG1       -0.1908
     41 C          -4.0946   -8.9342   -0.0755 C.1     1  LIG1        0.1026
     42 N          -1.3930  -11.5677   -0.1037 N.1     1  LIG1       -0.1908
     43 C          -1.5196  -10.4281   -0.0964 C.1     1  LIG1        0.1020
@<TRIPOS>BOND
     1    23    20    1
     2    10     8    1
     3     9     8    1
     4    42    43    3
     5    43    35    1
     6    39    36    1
     7    35    36   ar
     8    35    34   ar
     9    36    37   ar
    10    34    41    1
    11    34    33   ar
    12    32    31    1
    13    37    38    1
    14    37    33   ar
    15    41    40    3
    16    31    26    1
    17    33    27    1
    18    26    27   ar
    19    26    25   ar
    20    27    28   ar
    21    25    30    1
    22    25    24   ar
    23    28    29    1
    24    28    24   ar
    25    24    15    1
    26    16    15   ar
    27    16    12   ar
    28    15    14   ar
    29     2     8    1
    30     2     1   ar
    31     2     3   ar
    32     6     5    1
    33     4    12    1
    34     4     5   ar
    35     4     3   ar
    36    12    13   ar
    37     5     1   ar
    38     1     7    1
    39     3    11    1
    40    14    19    1
    41    14    13   ar
    42    19    20    1
    43    13    17    1
    44    20    21    1
    45    20    22    1
    46    17    18    1
