@<TRIPOS>MOLECULE
mol_data/noopt/geoms/mol2/13ha13fd6eh-12ad-.out
 43 46 0 0 0
SMALL
GASTEIGER

@<TRIPOS>ATOM
      1 C           1.1215   -0.3259    0.0002 C.ar    1  LIG1        0.0230
      2 C           0.7176    0.9721   -0.0005 C.ar    1  LIG1        0.0427
      3 C          -0.7144    0.9744    0.0003 C.ar    1  LIG1       -0.0142
      4 C          -1.1226   -0.3223   -0.0003 C.ar    1  LIG1        0.0683
      5 N          -0.0018   -1.1217    0.0001 N.ar    1  LIG1       -0.3578
      6 H          -0.0034   -2.1157   -0.0003 H       1  LIG1        0.1654
      7 H           2.3167   -0.8373    0.0007 H       1  LIG1        0.0826
      8 N           1.4918    2.0164   -0.0003 N.pl3   1  LIG1       -0.3568
      9 H           2.3463    1.7980   -0.4717 H       1  LIG1        0.1424
     10 H           1.0345    2.7705   -0.4717 H       1  LIG1        0.1424
     11 H          -1.4853    2.0212    0.0010 H       1  LIG1        0.0658
     12 C          -2.3194   -0.8299   -0.0001 C.ar    1  LIG1        0.1067
     13 C          -3.5352   -0.2220    0.0163 C.ar    1  LIG1        0.1615
     14 C          -4.5290   -1.2531    0.0088 C.ar    1  LIG1        0.1190
     15 C          -3.8768   -2.4456   -0.0136 C.ar    1  LIG1        0.0709
     16 N          -2.5238   -2.1911   -0.0187 N.ar    1  LIG1       -0.3490
     17 H          -1.8082   -2.8808   -0.0339 H       1  LIG1        0.1661
     18 O          -3.7519    1.0597    0.0366 O.3     1  LIG1       -0.5034
     19 H          -4.6976    1.2247    0.0416 H       1  LIG1        0.2923
     20 N          -6.9547   -0.9346    0.0312 N.1     1  LIG1       -0.1907
     21 C          -5.8179   -1.0839    0.0207 C.1     1  LIG1        0.1050
     22 C          -3.4590   -4.7569   -0.0568 C.ar    1  LIG1        0.1232
     23 C          -4.3399   -3.6602   -0.0280 C.ar    1  LIG1        0.0353
     24 C          -5.7136   -3.9087   -0.0149 C.ar    1  LIG1       -0.0270
     25 C          -6.1573   -5.2321   -0.0312 C.ar    1  LIG1        0.0547
     26 C          -5.1987   -6.2615   -0.0602 C.ar    1  LIG1        0.1279
     27 N          -3.8697   -6.0398   -0.0729 N.ar    1  LIG1       -0.2328
     28 H          -6.4323   -3.0773    0.0066 H       1  LIG1        0.0644
     29 C          -2.1717   -4.5764   -0.0698 C.1     1  LIG1       -0.0491
     30 C          -0.9822   -4.4097   -0.0818 C.1     1  LIG1       -0.1124
     31 H           0.0774   -4.2611   -0.0925 H       1  LIG1        0.1232
     32 N          -7.4260   -5.5157   -0.0203 N.pl3   1  LIG1       -0.3562
     33 H          -7.9333   -4.7925   -0.4889 H       1  LIG1        0.1424
     34 H          -7.5770   -6.3861   -0.4889 H       1  LIG1        0.1424
     35 C          -5.5625   -7.5094   -0.0761 C.ar    1  LIG1        0.1560
     36 C          -6.7664   -8.1829   -0.0734 C.ar    1  LIG1        0.0032
     37 C          -6.4513   -9.5960   -0.0996 C.ar    1  LIG1        0.0900
     38 C          -5.0750   -9.6923   -0.1167 C.ar    1  LIG1        0.1100
     39 O          -4.5044   -8.4191   -0.1028 O.2     1  LIG1       -0.4600
     40 H          -4.2149  -10.6669   -0.1421 H       1  LIG1        0.1043
     41 H          -7.9626   -7.6743   -0.0517 H       1  LIG1        0.0669
     42 N          -8.0813  -11.4205   -0.1106 N.1     1  LIG1       -0.1908
     43 C          -7.3174  -10.5654   -0.1054 C.1     1  LIG1        0.1023
@<TRIPOS>BOND
     1    34    32    1
     2    33    32    1
     3    10     8    1
     4     9     8    1
     5    40    38    1
     6    38    39   ar
     7    38    37   ar
     8    42    43    3
     9    43    37    1
    10    39    35   ar
    11    37    36   ar
    12    31    30    1
    13    30    29    3
    14    35    36   ar
    15    35    26    1
    16    36    41    1
    17    27    26   ar
    18    27    22   ar
    19    29    22    1
    20    26    25   ar
    21    22    23   ar
    22    17    16    1
    23    25    32    1
    24    25    24   ar
    25    23    24   ar
    26    23    15    1
    27    16    15   ar
    28    16    12   ar
    29    24    28    1
    30    15    14   ar
    31     2     8    1
    32     2     1   ar
    33     2     3   ar
    34     6     5    1
    35     4    12    1
    36     4     5   ar
    37     4     3   ar
    38    12    13   ar
    39     5     1   ar
    40     1     7    1
    41     3    11    1
    42    14    13   ar
    43    14    21    1
    44    13    18    1
    45    21    20    3
    46    18    19    1
