@<TRIPOS>MOLECULE
mol_data/noopt/geoms/mol2/13ha6fd(60)12di(90)13le(260).out
 48 51 0 0 0
SMALL
GASTEIGER

@<TRIPOS>ATOM
      1 C           1.1215   -0.3259    0.0002 C.ar    1  LIG1        0.0230
      2 C           0.7176    0.9721   -0.0005 C.ar    1  LIG1        0.0427
      3 C          -0.7144    0.9744    0.0003 C.ar    1  LIG1       -0.0155
      4 C          -1.1226   -0.3223   -0.0003 C.ar    1  LIG1        0.0534
      5 N          -0.0018   -1.1217    0.0001 N.ar    1  LIG1       -0.3589
      6 H          -0.0034   -2.1157   -0.0003 H       1  LIG1        0.1654
      7 H           2.3167   -0.8373    0.0007 H       1  LIG1        0.0826
      8 N           1.4918    2.0164   -0.0003 N.pl3   1  LIG1       -0.3568
      9 H           2.3463    1.7980   -0.4717 H       1  LIG1        0.1424
     10 H           1.0345    2.7705   -0.4717 H       1  LIG1        0.1424
     11 H          -1.4853    2.0212    0.0010 H       1  LIG1        0.0657
     12 C          -2.7370   -1.6669   -1.0510 C.ar    1  LIG1        0.2224
     13 C          -2.3194   -0.8299   -0.0001 C.ar    1  LIG1        0.0609
     14 C          -3.2168   -0.5611    1.0350 C.ar    1  LIG1       -0.0279
     15 C          -4.4897   -1.1320    0.9860 C.ar    1  LIG1        0.0816
     16 C          -4.8145   -1.9560   -0.1072 C.ar    1  LIG1        0.1284
     17 N          -3.9610   -2.2261   -1.1142 N.ar    1  LIG1       -0.2080
     18 H          -2.9265    0.0892    1.8724 H       1  LIG1        0.0639
     19 O          -1.9373   -1.9467   -2.0371 O.3     1  LIG1       -0.4919
     20 H          -1.4415   -1.1614   -2.2801 H       1  LIG1        0.2937
     21 N          -6.1303   -0.7185    2.7533 N.1     1  LIG1       -0.1908
     22 C          -5.3614   -0.9123    1.9251 C.1     1  LIG1        0.1014
     23 C          -5.9869   -2.5103   -0.1976 C.ar    1  LIG1        0.1728
     24 C          -6.9345   -2.9584    0.6992 C.ar    1  LIG1        0.1025
     25 C          -8.0348   -3.4786   -0.0854 C.ar    1  LIG1        0.0150
     26 C          -7.6864   -3.3138   -1.4102 C.ar    1  LIG1        0.1596
     27 O          -6.4280   -2.7186   -1.5051 O.2     1  LIG1       -0.4500
     28 N          -6.8261   -2.9073    3.1428 N.1     1  LIG1       -0.1907
     29 C          -6.8769   -2.9312    1.9976 C.1     1  LIG1        0.1033
     30 C          -9.1282   -3.9956    0.3921 C.3     1  LIG1       -0.0348
     31 H          -8.8873   -4.8481    0.9922 H       1  LIG1        0.0279
     32 H          -9.7631   -4.2959   -0.4153 H       1  LIG1        0.0279
     33 H          -9.6342   -3.2684    0.9921 H       1  LIG1        0.0279
     34 C          -8.2443   -3.5776   -2.5544 C.ar    1  LIG1        0.1258
     35 C          -7.7310   -3.5508   -3.8129 C.ar    1  LIG1        0.1636
     36 C          -8.7804   -3.9287   -4.7110 C.ar    1  LIG1        0.0843
     37 C          -9.8884   -4.1714   -3.9616 C.ar    1  LIG1        0.0214
     38 N          -9.5647   -3.9572   -2.6408 N.ar    1  LIG1       -0.3542
     39 H         -10.1857   -4.0608   -1.8716 H       1  LIG1        0.1656
     40 H         -11.0831   -4.5403   -4.3174 H       1  LIG1        0.0820
     41 O          -6.5117   -3.2378   -4.1376 O.3     1  LIG1       -0.4917
     42 C          -5.7288   -4.4285   -4.2569 C.3     1  LIG1        0.0789
     43 H          -4.7254   -4.1704   -4.5242 H       1  LIG1        0.0660
     44 H          -5.7262   -4.9488   -3.3218 H       1  LIG1        0.0660
     45 H          -6.1491   -5.0574   -5.0137 H       1  LIG1        0.0660
     46 C          -8.6934   -4.0237   -6.0046 C.1     1  LIG1       -0.0645
     47 C          -8.6130   -4.1114   -7.1999 C.1     1  LIG1       -0.1137
     48 H          -8.5414   -4.1896   -8.2646 H       1  LIG1        0.1232
@<TRIPOS>BOND
     1    48    47    1
     2    47    46    3
     3    46    36    1
     4    45    42    1
     5    36    37   ar
     6    36    35   ar
     7    43    42    1
     8    40    37    1
     9    42    41    1
    10    42    44    1
    11    41    35    1
    12    37    38   ar
    13    35    34   ar
    14    38    34   ar
    15    38    39    1
    16    34    26    1
    17    20    19    1
    18    19    12    1
    19    27    26   ar
    20    27    23   ar
    21    26    25   ar
    22    17    12   ar
    23    17    16   ar
    24    12    13   ar
    25    10     8    1
    26     9     8    1
    27    32    30    1
    28    23    16    1
    29    23    24   ar
    30    16    15   ar
    31    25    30    1
    32    25    24   ar
    33     2     8    1
    34     2     1   ar
    35     2     3   ar
    36     4    13    1
    37     4     5   ar
    38     4     3   ar
    39     6     5    1
    40    13    14   ar
    41     5     1   ar
    42     1     7    1
    43     3    11    1
    44    30    33    1
    45    30    31    1
    46    24    29    1
    47    15    14   ar
    48    15    22    1
    49    14    18    1
    50    22    21    3
    51    29    28    3
