@<TRIPOS>MOLECULE
mol_data/noopt/geoms/mol2/13ha13dd6ea-12hf-4ff-12fd13ei-6ii.out
 92 99 0 0 0
SMALL
GASTEIGER

@<TRIPOS>ATOM
      1 C           1.1215   -0.3259    0.0002 C.ar    1  LIG1        0.0230
      2 C           0.7176    0.9721   -0.0005 C.ar    1  LIG1        0.0427
      3 C          -0.7144    0.9744    0.0003 C.ar    1  LIG1       -0.0142
      4 C          -1.1226   -0.3223   -0.0003 C.ar    1  LIG1        0.0660
      5 N          -0.0018   -1.1217    0.0001 N.ar    1  LIG1       -0.3579
      6 H          -0.0034   -2.1157   -0.0003 H       1  LIG1        0.1654
      7 H           2.3167   -0.8373    0.0007 H       1  LIG1        0.0826
      8 N           1.4918    2.0164   -0.0003 N.pl3   1  LIG1       -0.3568
      9 H           2.3463    1.7980   -0.4717 H       1  LIG1        0.1424
     10 H           1.0345    2.7705   -0.4717 H       1  LIG1        0.1424
     11 H          -1.4853    2.0212    0.0010 H       1  LIG1        0.0658
     12 C          -2.3194   -0.8299   -0.0001 C.ar    1  LIG1        0.0822
     13 C          -3.5352   -0.2220    0.0163 C.ar    1  LIG1        0.0963
     14 C          -4.5290   -1.2531    0.0088 C.ar    1  LIG1        0.0950
     15 C          -3.8768   -2.4456   -0.0136 C.ar    1  LIG1        0.0685
     16 N          -2.5238   -2.1911   -0.0187 N.ar    1  LIG1       -0.3509
     17 H          -1.8082   -2.8808   -0.0339 H       1  LIG1        0.1660
     18 N          -3.9430    2.1900    0.0546 N.1     1  LIG1       -0.1908
     19 C          -3.7519    1.0596    0.0366 C.1     1  LIG1        0.1026
     20 N          -6.9547   -0.9346    0.0312 N.1     1  LIG1       -0.1908
     21 C          -5.8179   -1.0839    0.0207 C.1     1  LIG1        0.1026
     22 C          -3.4590   -4.7569   -0.0568 C.ar    1  LIG1        0.1230
     23 C          -4.3399   -3.6602   -0.0280 C.ar    1  LIG1        0.0335
     24 C          -5.7136   -3.9087   -0.0149 C.ar    1  LIG1       -0.0478
     25 C          -6.1573   -5.2321   -0.0312 C.ar    1  LIG1       -0.0319
     26 C          -5.1987   -6.2615   -0.0602 C.ar    1  LIG1        0.1094
     27 N          -3.8697   -6.0398   -0.0729 N.ar    1  LIG1       -0.2346
     28 H          -6.4323   -3.0773    0.0066 H       1  LIG1        0.0626
     29 C          -2.1717   -4.5764   -0.0698 C.1     1  LIG1       -0.0491
     30 C          -0.9822   -4.4097   -0.0818 C.1     1  LIG1       -0.1124
     31 H           0.0774   -4.2611   -0.0925 H       1  LIG1        0.1232
     32 H          -7.4260   -5.5157   -0.0203 H       1  LIG1        0.0640
     33 C          -5.5625   -7.5094   -0.0761 C.ar    1  LIG1        0.1781
     34 C          -6.7664   -8.1829   -0.0734 C.ar    1  LIG1        0.1153
     35 C          -6.4513   -9.5960   -0.0996 C.ar    1  LIG1        0.1846
     36 C          -5.0750   -9.6923   -0.1167 C.ar    1  LIG1        0.1825
     37 O          -4.5044   -8.4191   -0.1028 O.2     1  LIG1       -0.4475
     38 N          -7.9626   -7.6742   -0.0517 N.pl3   1  LIG1       -0.3521
     39 H          -7.9570   -6.7894   -0.5174 H       1  LIG1        0.1425
     40 H          -8.5960   -8.2921   -0.5175 H       1  LIG1        0.1425
     41 O          -7.3174  -10.5655   -0.1054 O.3     1  LIG1       -0.5020
     42 H          -6.8560  -11.4073   -0.1069 H       1  LIG1        0.2924
     43 C          -4.6664  -12.0025   -0.1337 C.ar    1  LIG1        0.1285
     44 C          -3.6951  -13.0219   -0.1605 C.ar    1  LIG1       -0.0052
     45 C          -4.2150  -10.6668   -0.1421 C.ar    1  LIG1        0.0658
     46 C          -2.3341  -12.7268   -0.1948 C.ar    1  LIG1        0.0658
     47 H          -4.0216  -14.0595   -0.1544 H       1  LIG1        0.0662
     48 C          -2.8564  -10.3717   -0.1763 C.ar    1  LIG1       -0.0052
     49 C          -1.9069  -11.3984   -0.2030 C.ar    1  LIG1        0.1285
     50 H          -2.5334   -9.3337   -0.1821 H       1  LIG1        0.0662
     51 O          -5.9214  -12.3401   -0.1024 O.3     1  LIG1       -0.5060
     52 H          -5.9956  -13.2972   -0.0947 H       1  LIG1        0.2922
     53 O          -0.6382  -11.1165   -0.2349 O.3     1  LIG1       -0.5060
     54 H          -0.5218  -10.1636   -0.2427 H       1  LIG1        0.2922
     55 C          -1.4646  -13.6929   -0.2191 C.ar    1  LIG1        0.1819
     56 C          -1.5257  -15.0711   -0.2226 C.ar    1  LIG1        0.1812
     57 C          -0.1584  -15.5468   -0.2569 C.ar    1  LIG1        0.1409
     58 C           0.6478  -14.4273   -0.2722 C.ar    1  LIG1        0.1740
     59 O          -0.1343  -13.2721   -0.2494 O.2     1  LIG1       -0.4481
     60 O          -2.5877  -15.8205   -0.1999 O.3     1  LIG1       -0.5023
     61 H          -2.3277  -16.7446   -0.1943 H       1  LIG1        0.2923
     62 N           0.5347  -17.8931   -0.2820 N.1     1  LIG1       -0.1906
     63 C           0.2099  -16.7935   -0.2702 C.1     1  LIG1        0.1067
     64 C           1.9290  -14.2089   -0.3019 C.ar    1  LIG1        0.0998
     65 C           2.9724  -15.0802   -0.3059 C.ar    1  LIG1        0.0565
     66 C           4.1763  -14.3057   -0.3437 C.ar    1  LIG1       -0.0091
     67 C           3.8156  -12.9952   -0.3630 C.ar    1  LIG1        0.0529
     68 N           2.4406  -12.9313   -0.3371 N.ar    1  LIG1       -0.3505
     69 H           1.9027  -12.0955   -0.3434 H       1  LIG1        0.1660
     70 C           2.8888  -16.3773   -0.2786 C.1     1  LIG1       -0.0672
     71 C           2.8115  -17.5757   -0.2534 C.1     1  LIG1       -0.1138
     72 H           2.7427  -18.6433   -0.2310 H       1  LIG1        0.1232
     73 C           5.3919  -14.7672   -0.3577 C.3     1  LIG1       -0.0365
     74 H           6.0404  -14.0789    0.1429 H       1  LIG1        0.0279
     75 H           5.7153  -14.8899   -1.3703 H       1  LIG1        0.0279
     76 H           5.4203  -15.7125    0.1428 H       1  LIG1        0.0279
     77 C           3.9400  -10.6500   -0.4172 C.ar    1  LIG1        0.0473
     78 C           4.5453  -11.9199   -0.3981 C.ar    1  LIG1        0.0199
     79 C           5.9393  -11.9943   -0.4175 C.ar    1  LIG1       -0.0466
     80 C           6.6751  -10.8087   -0.4550 C.ar    1  LIG1       -0.0317
     81 C           5.9786   -9.5863   -0.4718 C.ar    1  LIG1        0.0308
     82 N           4.6344   -9.4961   -0.4534 N.ar    1  LIG1       -0.2593
     83 H           6.4477  -12.9688   -0.4045 H       1  LIG1        0.0628
     84 H           6.6193   -8.4558   -0.5066 H       1  LIG1        0.0832
     85 C           2.6454  -10.5292   -0.4003 C.3     1  LIG1       -0.0217
     86 H           2.2157  -11.3666    0.1087 H       1  LIG1        0.0293
     87 H           2.2772  -10.4949   -1.4044 H       1  LIG1        0.0293
     88 H           2.3780   -9.6268    0.1087 H       1  LIG1        0.0293
     89 C           7.9752  -10.8247   -0.4744 C.3     1  LIG1       -0.0383
     90 H           8.3501   -9.9556    0.0246 H       1  LIG1        0.0278
     91 H           8.3167  -10.8289   -1.4885 H       1  LIG1        0.0278
     92 H           8.3285  -11.7028    0.0246 H       1  LIG1        0.0278
@<TRIPOS>BOND
     1    91    89    1
     2    87    85    1
     3    75    73    1
     4    40    38    1
     5    39    38    1
     6    84    81    1
     7    89    80    1
     8    89    92    1
     9    89    90    1
    10    81    80   ar
    11    81    82   ar
    12    10     8    1
    13     9     8    1
    14    80    79   ar
    15    82    77   ar
    16    79    83    1
    17    79    78   ar
    18    77    85    1
    19    77    78   ar
    20    85    88    1
    21    85    86    1
    22    78    67    1
    23    67    66   ar
    24    67    68   ar
    25    73    66    1
    26    73    76    1
    27    73    74    1
    28    66    65   ar
    29    69    68    1
    30    68    64   ar
    31    65    64   ar
    32    65    70    1
    33    64    58    1
    34    62    63    3
    35    70    71    3
    36    58    57   ar
    37    58    59   ar
    38    63    57    1
    39    57    56   ar
    40    71    72    1
    41    59    55   ar
    42    54    53    1
    43    53    49    1
    44    56    55   ar
    45    56    60    1
    46    55    46    1
    47    49    46   ar
    48    49    48   ar
    49    60    61    1
    50    46    44   ar
    51    50    48    1
    52    48    45   ar
    53    44    47    1
    54    44    43   ar
    55    45    43   ar
    56    45    36    1
    57    43    51    1
    58    36    37   ar
    59    36    35   ar
    60    42    41    1
    61    41    35    1
    62    37    33   ar
    63    51    52    1
    64    35    34   ar
    65    31    30    1
    66    30    29    3
    67    33    34   ar
    68    33    26    1
    69    34    38    1
    70    27    26   ar
    71    27    22   ar
    72    29    22    1
    73    26    25   ar
    74    22    23   ar
    75    17    16    1
    76    25    32    1
    77    25    24   ar
    78    23    24   ar
    79    23    15    1
    80    16    15   ar
    81    16    12   ar
    82    24    28    1
    83    15    14   ar
    84     2     8    1
    85     2     1   ar
    86     2     3   ar
    87     4    12    1
    88     4     5   ar
    89     4     3   ar
    90     6     5    1
    91    12    13   ar
    92     5     1   ar
    93     1     7    1
    94     3    11    1
    95    14    13   ar
    96    14    21    1
    97    13    19    1
    98    21    20    3
    99    19    18    3
