@<TRIPOS>MOLECULE
mol_data/noopt/geoms/mol2/13hd13hd13hd-13hd.out
 46 49 0 0 0
SMALL
GASTEIGER

@<TRIPOS>ATOM
      1 C           1.1215   -0.3259    0.0002 C.ar    1  LIG1        0.0243
      2 C           0.7176    0.9721   -0.0005 C.ar    1  LIG1        0.0604
      3 C          -0.7144    0.9744    0.0003 C.ar    1  LIG1        0.0990
      4 C          -1.1226   -0.3223   -0.0003 C.ar    1  LIG1        0.0842
      5 N          -0.0018   -1.1217    0.0001 N.ar    1  LIG1       -0.3568
      6 H          -0.0034   -2.1157   -0.0003 H       1  LIG1        0.1655
      7 H           2.3167   -0.8373    0.0007 H       1  LIG1        0.0826
      8 N           1.4918    2.0164   -0.0003 N.pl3   1  LIG1       -0.3558
      9 H           2.3463    1.7980   -0.4717 H       1  LIG1        0.1424
     10 H           1.0345    2.7705   -0.4717 H       1  LIG1        0.1424
     11 N          -2.1652    2.9444    0.0016 N.1     1  LIG1       -0.1907
     12 C          -1.4853    2.0212    0.0010 C.1     1  LIG1        0.1032
     13 C          -2.3194   -0.8299   -0.0001 C.ar    1  LIG1        0.0869
     14 C          -3.5353   -0.2219   -0.0003 C.ar    1  LIG1        0.0699
     15 C          -4.5290   -1.2530    0.0012 C.ar    1  LIG1        0.0997
     16 C          -3.8767   -2.4457    0.0005 C.ar    1  LIG1        0.0846
     17 N          -2.5238   -2.1913    0.0002 N.ar    1  LIG1       -0.3493
     18 H          -1.8081   -2.8811   -0.0004 H       1  LIG1        0.1661
     19 N          -3.7520    1.0599   -0.0003 N.pl3   1  LIG1       -0.3553
     20 H          -3.0025    1.5247   -0.4717 H       1  LIG1        0.1424
     21 H          -4.6126    1.2525   -0.4717 H       1  LIG1        0.1424
     22 N          -6.9548   -0.9344    0.0036 N.1     1  LIG1       -0.1907
     23 C          -5.8179   -1.0837    0.0025 C.1     1  LIG1        0.1032
     24 C          -4.3398   -3.6604    0.0012 C.ar    1  LIG1        0.0869
     25 C          -3.6874   -4.8530    0.0012 C.ar    1  LIG1        0.0699
     26 C          -4.6811   -5.8841    0.0032 C.ar    1  LIG1        0.0997
     27 C          -5.8970   -5.2763    0.0027 C.ar    1  LIG1        0.0846
     28 N          -5.6927   -3.9149    0.0019 N.ar    1  LIG1       -0.3493
     29 H          -6.4084   -3.2251    0.0013 H       1  LIG1        0.1661
     30 N          -2.3984   -5.0223    0.0009 N.pl3   1  LIG1       -0.3553
     31 H          -2.1744   -5.8753   -0.4706 H       1  LIG1        0.1424
     32 H          -1.9617   -4.2562   -0.4706 H       1  LIG1        0.1424
     33 N          -4.2732   -8.2965    0.0063 N.1     1  LIG1       -0.1907
     34 C          -4.4643   -7.1660    0.0049 C.1     1  LIG1        0.1032
     35 C          -7.0939   -5.7839    0.0038 C.ar    1  LIG1        0.0864
     36 C          -8.3097   -5.1759    0.0043 C.ar    1  LIG1        0.0693
     37 C          -9.3034   -6.2070    0.0067 C.ar    1  LIG1        0.0903
     38 C          -8.6511   -7.3997    0.0060 C.ar    1  LIG1        0.0215
     39 N          -7.2982   -7.1453    0.0047 N.ar    1  LIG1       -0.3568
     40 H          -6.5825   -7.8351    0.0038 H       1  LIG1        0.1655
     41 H          -9.1142   -8.6144    0.0073 H       1  LIG1        0.0820
     42 N          -8.5264   -3.8941    0.0041 N.pl3   1  LIG1       -0.3553
     43 H          -7.7769   -3.4294   -0.4674 H       1  LIG1        0.1424
     44 H          -9.3870   -3.7016   -0.4674 H       1  LIG1        0.1424
     45 N         -11.7292   -5.8884    0.0107 N.1     1  LIG1       -0.1908
     46 C         -10.5924   -6.0377    0.0089 C.1     1  LIG1        0.1025
@<TRIPOS>BOND
     1    21    19    1
     2    10     8    1
     3    20    19    1
     4     9     8    1
     5    32    30    1
     6    31    30    1
     7    44    42    1
     8    43    42    1
     9     2     8    1
    10     2     1   ar
    11     2     3   ar
    12    18    17    1
    13    14    19    1
    14    14    13   ar
    15    14    15   ar
    16     6     5    1
    17     4    13    1
    18     4     5   ar
    19     4     3   ar
    20    13    17   ar
    21     5     1   ar
    22    17    16   ar
    23     1     7    1
    24     3    12    1
    25    16    15   ar
    26    16    24    1
    27    30    25    1
    28    12    11    3
    29    25    24   ar
    30    25    26   ar
    31    15    23    1
    32    24    28   ar
    33    29    28    1
    34    28    27   ar
    35    23    22    3
    36    27    26   ar
    37    27    35    1
    38    26    34    1
    39    40    39    1
    40    35    36   ar
    41    35    39   ar
    42    42    36    1
    43    36    37   ar
    44    39    38   ar
    45    34    33    3
    46    38    37   ar
    47    38    41    1
    48    37    46    1
    49    46    45    3
