@<TRIPOS>MOLECULE
mol_data/noopt/geoms/mol2/13hd6aa(110)4df(260)6ed(240).out
 46 49 0 0 0
SMALL
GASTEIGER

@<TRIPOS>ATOM
      1 C           1.1215   -0.3259    0.0002 C.ar    1  LIG1        0.0243
      2 C           0.7176    0.9721   -0.0005 C.ar    1  LIG1        0.0603
      3 C          -0.7144    0.9744    0.0003 C.ar    1  LIG1        0.0976
      4 C          -1.1226   -0.3223   -0.0003 C.ar    1  LIG1        0.0673
      5 N          -0.0018   -1.1217    0.0001 N.ar    1  LIG1       -0.3580
      6 H          -0.0034   -2.1157   -0.0003 H       1  LIG1        0.1654
      7 H           2.3167   -0.8373    0.0007 H       1  LIG1        0.0826
      8 N           1.4918    2.0164   -0.0003 N.pl3   1  LIG1       -0.3558
      9 H           2.3463    1.7980   -0.4717 H       1  LIG1        0.1424
     10 H           1.0345    2.7705   -0.4717 H       1  LIG1        0.1424
     11 N          -2.1652    2.9444    0.0016 N.1     1  LIG1       -0.1907
     12 C          -1.4853    2.0212    0.0010 C.1     1  LIG1        0.1031
     13 C          -3.1364   -0.7252   -1.1407 C.ar    1  LIG1        0.0374
     14 C          -2.3194   -0.8299   -0.0001 C.ar    1  LIG1        0.0177
     15 C          -2.8235   -1.4883    1.1230 C.ar    1  LIG1       -0.0491
     16 C          -4.1152   -2.0151    1.0697 C.ar    1  LIG1       -0.0350
     17 C          -4.8554   -1.8595   -0.1166 C.ar    1  LIG1        0.0723
     18 N          -4.3846   -1.2275   -1.2094 N.ar    1  LIG1       -0.2543
     19 H          -2.2148   -1.5888    2.0328 H       1  LIG1        0.0625
     20 H          -2.7115   -0.1216   -2.2107 H       1  LIG1        0.0836
     21 H          -4.6300   -2.6366    2.0888 H       1  LIG1        0.0639
     22 C          -6.5524   -2.7520   -1.4685 C.ar    1  LIG1        0.0617
     23 C          -7.8665   -3.2556   -1.5225 C.ar    1  LIG1       -0.0324
     24 C          -6.0622   -2.3326   -0.2149 C.ar    1  LIG1        0.0212
     25 C          -8.6590   -3.3393   -0.3799 C.ar    1  LIG1        0.0275
     26 H          -8.2646   -3.5846   -2.4798 H       1  LIG1        0.0638
     27 C          -6.8530   -2.4160    0.9261 C.ar    1  LIG1       -0.0092
     28 C          -8.1559   -2.9196    0.8521 C.ar    1  LIG1        0.1253
     29 H          -6.4523   -2.0861    1.8812 H       1  LIG1        0.0661
     30 N          -5.2518   -2.6516   -3.5384 N.1     1  LIG1       -0.1908
     31 C          -5.8613   -2.6987   -2.5683 C.1     1  LIG1        0.0998
     32 O          -8.8906   -2.9950    1.9220 O.3     1  LIG1       -0.5061
     33 H          -8.9792   -3.9138    2.1857 H       1  LIG1        0.2922
     34 C         -10.8144   -3.5258    0.5356 C.ar    1  LIG1        0.1210
     35 C          -9.8679   -3.8096   -0.4660 C.ar    1  LIG1        0.0207
     36 C         -10.2582   -4.6029   -1.5465 C.ar    1  LIG1       -0.0324
     37 C         -11.5686   -5.0819   -1.5897 C.ar    1  LIG1        0.0705
     38 C         -12.4422   -4.7438   -0.5399 C.ar    1  LIG1        0.0464
     39 N         -12.0825   -3.9796    0.5098 N.ar    1  LIG1       -0.2448
     40 H          -9.5461   -4.8466   -2.3476 H       1  LIG1        0.0638
     41 H         -13.6718   -5.1657   -0.5354 H       1  LIG1        0.0843
     42 C         -10.4986   -2.7917    1.5609 C.1     1  LIG1       -0.0492
     43 C         -10.2068   -2.1133    2.5083 C.1     1  LIG1       -0.1124
     44 H          -9.9469   -1.5090    3.3522 H       1  LIG1        0.1232
     45 N         -12.3439   -6.4793   -3.4423 N.1     1  LIG1       -0.1908
     46 C         -11.9806   -5.8244   -2.5741 C.1     1  LIG1        0.1007
@<TRIPOS>BOND
     1    30    31    3
     2    45    46    3
     3    46    37    1
     4    31    22    1
     5    26    23    1
     6    40    36    1
     7    20    13    1
     8    37    36   ar
     9    37    38   ar
    10    36    35   ar
    11    23    22   ar
    12    23    25   ar
    13    22    24   ar
    14    18    13   ar
    15    18    17   ar
    16    13    14   ar
    17    38    41    1
    18    38    39   ar
    19    10     8    1
    20     9     8    1
    21    35    25    1
    22    35    34   ar
    23    25    28   ar
    24    24    17    1
    25    24    27   ar
    26    17    16   ar
    27     2     8    1
    28     2     1   ar
    29     2     3   ar
    30     4    14    1
    31     4     5   ar
    32     4     3   ar
    33     6     5    1
    34    14    15   ar
    35     5     1   ar
    36     1     7    1
    37     3    12    1
    38    12    11    3
    39    39    34   ar
    40    34    42    1
    41    28    27   ar
    42    28    32    1
    43    27    29    1
    44    16    15   ar
    45    16    21    1
    46    15    19    1
    47    42    43    3
    48    32    33    1
    49    43    44    1
