@<TRIPOS>MOLECULE
mol_data/noopt/geoms/mol2/13hd6il(340)4ef(300)6df(160).out
 53 56 0 0 0
SMALL
GASTEIGER

@<TRIPOS>ATOM
      1 C           1.1215   -0.3259    0.0002 C.ar    1  LIG1        0.0243
      2 C           0.7176    0.9721   -0.0005 C.ar    1  LIG1        0.0603
      3 C          -0.7144    0.9744    0.0003 C.ar    1  LIG1        0.0976
      4 C          -1.1226   -0.3223   -0.0003 C.ar    1  LIG1        0.0677
      5 N          -0.0018   -1.1217    0.0001 N.ar    1  LIG1       -0.3579
      6 H          -0.0034   -2.1157   -0.0003 H       1  LIG1        0.1654
      7 H           2.3167   -0.8373    0.0007 H       1  LIG1        0.0826
      8 N           1.4918    2.0164   -0.0003 N.pl3   1  LIG1       -0.3558
      9 H           2.3463    1.7980   -0.4717 H       1  LIG1        0.1424
     10 H           1.0345    2.7705   -0.4717 H       1  LIG1        0.1424
     11 N          -2.1652    2.9444    0.0016 N.1     1  LIG1       -0.1907
     12 C          -1.4853    2.0212    0.0010 C.1     1  LIG1        0.1031
     13 C          -2.5286   -2.1578    0.4150 C.ar    1  LIG1        0.0483
     14 C          -2.3194   -0.8299   -0.0001 C.ar    1  LIG1        0.0241
     15 C          -3.4222   -0.0774   -0.4083 C.ar    1  LIG1       -0.0070
     16 C          -4.6854   -0.6712   -0.3885 C.ar    1  LIG1        0.1466
     17 C          -4.7932   -2.0060    0.0430 C.ar    1  LIG1        0.1141
     18 N          -3.7401   -2.7464    0.4404 N.ar    1  LIG1       -0.2475
     19 H          -3.2976    0.9631   -0.7402 H       1  LIG1        0.0662
     20 C          -1.5331   -2.8983    0.8041 C.3     1  LIG1       -0.0217
     21 H          -0.8597   -2.3104    1.3922 H       1  LIG1        0.0293
     22 H          -1.0178   -3.2816   -0.0517 H       1  LIG1        0.0293
     23 H          -1.9026   -3.7124    1.3921 H       1  LIG1        0.0293
     24 O          -5.7434   -0.0128   -0.7591 O.3     1  LIG1       -0.4929
     25 C          -5.4196    1.3734   -0.8952 C.3     1  LIG1        0.0789
     26 H          -6.2905    1.9148   -1.2003 H       1  LIG1        0.0660
     27 H          -5.0745    1.7529    0.0439 H       1  LIG1        0.0660
     28 H          -4.6514    1.4896   -1.6309 H       1  LIG1        0.0660
     29 C          -6.8786   -2.3947   -0.9591 C.ar    1  LIG1        0.0348
     30 C          -8.1155   -3.0624   -0.8728 C.ar    1  LIG1       -0.0344
     31 C          -5.9477   -2.6025    0.0792 C.ar    1  LIG1        0.0228
     32 C          -8.4143   -3.9010    0.1988 C.ar    1  LIG1        0.0276
     33 H          -8.8483   -2.9160   -1.6631 H       1  LIG1        0.0637
     34 C          -6.2455   -3.4395    1.1492 C.ar    1  LIG1       -0.0091
     35 C          -7.4796   -4.0943    1.2167 C.ar    1  LIG1        0.1253
     36 H          -5.5110   -3.5834    1.9375 H       1  LIG1        0.0661
     37 C          -6.6575   -1.6254   -1.9835 C.1     1  LIG1       -0.0690
     38 C          -6.4532   -0.9145   -2.9300 C.1     1  LIG1       -0.1139
     39 H          -6.2713   -0.2813   -3.7731 H       1  LIG1        0.1232
     40 O          -7.7525   -4.8755    2.2195 O.3     1  LIG1       -0.5061
     41 H          -6.9654   -5.3664    2.4666 H       1  LIG1        0.2922
     42 C         -10.7373   -3.8262   -0.1421 C.ar    1  LIG1        0.1480
     43 C          -9.5660   -4.5019    0.2465 C.ar    1  LIG1        0.0250
     44 C          -9.6723   -5.8243    0.6810 C.ar    1  LIG1       -0.0081
     45 C         -10.9334   -6.4220    0.7127 C.ar    1  LIG1        0.1355
     46 C         -12.0462   -5.6641    0.3043 C.ar    1  LIG1        0.0705
     47 N         -11.9618   -4.3874   -0.1179 N.ar    1  LIG1       -0.2404
     48 H          -8.7793   -6.3840    0.9935 H       1  LIG1        0.0661
     49 H         -13.2408   -6.1764    0.3159 H       1  LIG1        0.0867
     50 N         -10.6471   -1.5074   -0.9173 N.1     1  LIG1       -0.1893
     51 C         -10.6894   -2.5941   -0.5540 C.1     1  LIG1        0.1197
     52 O         -11.0850   -7.6507    1.1095 O.3     1  LIG1       -0.5052
     53 H         -10.2243   -8.0644    1.2072 H       1  LIG1        0.2922
@<TRIPOS>BOND
     1    39    38    1
     2    38    37    3
     3    37    29    1
     4    33    30    1
     5    28    25    1
     6    26    25    1
     7    29    30   ar
     8    29    31   ar
     9    50    51    3
    10    25    24    1
    11    25    27    1
    12    30    32   ar
    13    24    16    1
    14    19    15    1
    15    51    42    1
    16    10     8    1
    17     9     8    1
    18    15    16   ar
    19    15    14   ar
    20    16    17   ar
    21    42    47   ar
    22    42    43   ar
    23    47    46   ar
    24    22    20    1
    25     2     8    1
    26     2     1   ar
    27     2     3   ar
    28     4    14    1
    29     4     5   ar
    30     4     3   ar
    31     6     5    1
    32    14    13   ar
    33     5     1   ar
    34     1     7    1
    35     3    12    1
    36    12    11    3
    37    17    31    1
    38    17    18   ar
    39    31    34   ar
    40    32    43    1
    41    32    35   ar
    42    43    44   ar
    43    46    49    1
    44    46    45   ar
    45    13    18   ar
    46    13    20    1
    47    44    45   ar
    48    44    48    1
    49    45    52    1
    50    20    23    1
    51    20    21    1
    52    52    53    1
    53    34    35   ar
    54    34    36    1
    55    35    40    1
    56    40    41    1
