@<TRIPOS>MOLECULE
mol_data/noopt/geoms/mol2/13hd13hd13hd.out
 35 37 0 0 0
SMALL
GASTEIGER

@<TRIPOS>ATOM
      1 C           1.1215   -0.3259    0.0002 C.ar    1  LIG1        0.0243
      2 C           0.7176    0.9721   -0.0005 C.ar    1  LIG1        0.0604
      3 C          -0.7144    0.9744    0.0003 C.ar    1  LIG1        0.0990
      4 C          -1.1226   -0.3223   -0.0003 C.ar    1  LIG1        0.0842
      5 N          -0.0018   -1.1217    0.0001 N.ar    1  LIG1       -0.3568
      6 H          -0.0034   -2.1157   -0.0003 H       1  LIG1        0.1655
      7 H           2.3167   -0.8373    0.0007 H       1  LIG1        0.0826
      8 N           1.4918    2.0164   -0.0003 N.pl3   1  LIG1       -0.3558
      9 H           2.3463    1.7980   -0.4717 H       1  LIG1        0.1424
     10 H           1.0345    2.7705   -0.4717 H       1  LIG1        0.1424
     11 N          -2.1652    2.9444    0.0016 N.1     1  LIG1       -0.1907
     12 C          -1.4853    2.0212    0.0010 C.1     1  LIG1        0.1032
     13 C          -2.3194   -0.8299   -0.0001 C.ar    1  LIG1        0.0869
     14 C          -3.5353   -0.2219   -0.0003 C.ar    1  LIG1        0.0699
     15 C          -4.5290   -1.2530    0.0012 C.ar    1  LIG1        0.0997
     16 C          -3.8767   -2.4457    0.0005 C.ar    1  LIG1        0.0846
     17 N          -2.5238   -2.1913    0.0002 N.ar    1  LIG1       -0.3493
     18 H          -1.8081   -2.8811   -0.0004 H       1  LIG1        0.1661
     19 N          -3.7520    1.0599   -0.0003 N.pl3   1  LIG1       -0.3553
     20 H          -3.0025    1.5247   -0.4717 H       1  LIG1        0.1424
     21 H          -4.6126    1.2525   -0.4717 H       1  LIG1        0.1424
     22 N          -6.9548   -0.9344    0.0036 N.1     1  LIG1       -0.1907
     23 C          -5.8179   -1.0837    0.0025 C.1     1  LIG1        0.1032
     24 C          -4.3398   -3.6604    0.0012 C.ar    1  LIG1        0.0864
     25 C          -5.6206   -4.1160    0.0013 C.ar    1  LIG1        0.0693
     26 C          -5.5655   -5.5470    0.0033 C.ar    1  LIG1        0.0903
     27 C          -4.2535   -5.9029    0.0026 C.ar    1  LIG1        0.0215
     28 N          -3.4996   -4.7510    0.0018 N.ar    1  LIG1       -0.3568
     29 H          -2.5064   -4.7127    0.0010 H       1  LIG1        0.1655
     30 H          -3.6983   -7.0784    0.0036 H       1  LIG1        0.0820
     31 N          -6.6951   -3.3843    0.0012 N.pl3   1  LIG1       -0.3553
     32 H          -6.5110   -2.5218   -0.4702 H       1  LIG1        0.1424
     33 H          -7.4301   -3.8715   -0.4702 H       1  LIG1        0.1424
     34 N          -7.4758   -7.0756    0.0065 N.1     1  LIG1       -0.1908
     35 C          -6.5805   -6.3592    0.0050 C.1     1  LIG1        0.1025
@<TRIPOS>BOND
     1    21    19    1
     2    10     8    1
     3    20    19    1
     4     9     8    1
     5    33    31    1
     6    32    31    1
     7     2     8    1
     8     2     1   ar
     9     2     3   ar
    10    18    17    1
    11    14    19    1
    12    14    13   ar
    13    14    15   ar
    14     4    13    1
    15     4     5   ar
    16     4     3   ar
    17     6     5    1
    18    13    17   ar
    19     5     1   ar
    20    17    16   ar
    21     1     7    1
    22     3    12    1
    23    16    15   ar
    24    16    24    1
    25    29    28    1
    26    12    11    3
    27    15    23    1
    28    24    25   ar
    29    24    28   ar
    30    31    25    1
    31    25    26   ar
    32    28    27   ar
    33    23    22    3
    34    27    26   ar
    35    27    30    1
    36    26    35    1
    37    35    34    3
