@<TRIPOS>MOLECULE
mol_data/noopt/geoms/mol2/13hd13hd-4hd13hd.out
 48 51 0 0 0
SMALL
GASTEIGER

@<TRIPOS>ATOM
      1 C           1.1215   -0.3259    0.0002 C.ar    1  LIG1        0.0243
      2 C           0.7176    0.9721   -0.0005 C.ar    1  LIG1        0.0604
      3 C          -0.7144    0.9744    0.0003 C.ar    1  LIG1        0.0990
      4 C          -1.1226   -0.3223   -0.0003 C.ar    1  LIG1        0.0842
      5 N          -0.0018   -1.1217    0.0001 N.ar    1  LIG1       -0.3568
      6 H          -0.0034   -2.1157   -0.0003 H       1  LIG1        0.1655
      7 H           2.3167   -0.8373    0.0007 H       1  LIG1        0.0826
      8 N           1.4918    2.0164   -0.0003 N.pl3   1  LIG1       -0.3558
      9 H           2.3463    1.7980   -0.4717 H       1  LIG1        0.1424
     10 H           1.0345    2.7705   -0.4717 H       1  LIG1        0.1424
     11 N          -2.1652    2.9444    0.0016 N.1     1  LIG1       -0.1907
     12 C          -1.4853    2.0212    0.0010 C.1     1  LIG1        0.1032
     13 C          -2.3194   -0.8299   -0.0001 C.ar    1  LIG1        0.0869
     14 C          -2.7274   -2.1266   -0.0005 C.ar    1  LIG1        0.0699
     15 C          -4.1594   -2.1244    0.0011 C.ar    1  LIG1        0.0983
     16 C          -4.5635   -0.8264    0.0006 C.ar    1  LIG1        0.0682
     17 N          -3.4402   -0.0305    0.0003 N.ar    1  LIG1       -0.3504
     18 H          -3.4386    0.9635   -0.0001 H       1  LIG1        0.1660
     19 N          -1.9565   -3.1734   -0.0006 N.pl3   1  LIG1       -0.3553
     20 H          -2.4164   -3.9259   -0.4720 H       1  LIG1        0.1424
     21 H          -1.1015   -2.9576   -0.4721 H       1  LIG1        0.1424
     22 N          -5.6165   -4.0898    0.0034 N.1     1  LIG1       -0.1907
     23 C          -4.9336   -3.1687    0.0023 C.1     1  LIG1        0.1032
     24 C          -5.9236    1.0852    0.0026 C.ar    1  LIG1        0.0345
     25 C          -7.2385    1.5895    0.0050 C.ar    1  LIG1       -0.0300
     26 C          -5.7587   -0.3150    0.0014 C.ar    1  LIG1        0.0215
     27 C          -8.3419    0.7391    0.0056 C.ar    1  LIG1        0.0192
     28 H          -7.3885    2.6668    0.0062 H       1  LIG1        0.0643
     29 C          -6.8598   -1.1644    0.0020 C.ar    1  LIG1       -0.0328
     30 C          -8.1582   -0.6442    0.0040 C.ar    1  LIG1        0.0616
     31 H          -6.7065   -2.2406    0.0011 H       1  LIG1        0.0638
     32 N          -4.9342    1.9285    0.0020 N.pl3   1  LIG1       -0.3574
     33 H          -4.1511    1.5232   -0.4696 H       1  LIG1        0.1423
     34 H          -5.2104    2.7660   -0.4697 H       1  LIG1        0.1423
     35 N         -10.0883   -2.1477    0.0052 N.1     1  LIG1       -0.1908
     36 C          -9.1838   -1.4431    0.0046 C.1     1  LIG1        0.0998
     37 C          -9.5420    1.2389    0.0077 C.ar    1  LIG1        0.0700
     38 C          -9.9585    2.5329    0.0088 C.ar    1  LIG1        0.0678
     39 C         -11.3904    2.5213    0.0122 C.ar    1  LIG1        0.0902
     40 C         -11.7860    1.2207    0.0113 C.ar    1  LIG1        0.0215
     41 N         -10.6575    0.4322    0.0090 N.ar    1  LIG1       -0.3580
     42 H         -10.6495   -0.5617    0.0079 H       1  LIG1        0.1654
     43 H         -12.9778    0.7015    0.0134 H       1  LIG1        0.0820
     44 N          -9.1944    3.5847    0.0084 N.pl3   1  LIG1       -0.3553
     45 H          -8.3380    3.3744   -0.4631 H       1  LIG1        0.1424
     46 H          -9.6591    4.3341   -0.4632 H       1  LIG1        0.1424
     47 N         -12.8602    4.4772    0.0178 N.1     1  LIG1       -0.1908
     48 C         -12.1714    3.5606    0.0152 C.1     1  LIG1        0.1025
@<TRIPOS>BOND
     1    21    19    1
     2    20    19    1
     3    10     8    1
     4     9     8    1
     5    34    32    1
     6    33    32    1
     7    46    44    1
     8    45    44    1
     9    19    14    1
    10     2     8    1
    11     2     1   ar
    12     2     3   ar
    13    14    13   ar
    14    14    15   ar
    15     4    13    1
    16     4     5   ar
    17     4     3   ar
    18     6     5    1
    19    18    17    1
    20    13    17   ar
    21     5     1   ar
    22     1     7    1
    23     3    12    1
    24    17    16   ar
    25    16    15   ar
    26    16    26    1
    27    12    11    3
    28    15    23    1
    29    31    29    1
    30    26    29   ar
    31    26    24   ar
    32    32    24    1
    33    29    30   ar
    34    23    22    3
    35    24    25   ar
    36    30    36    1
    37    30    27   ar
    38    36    35    3
    39    25    27   ar
    40    25    28    1
    41    27    37    1
    42    37    38   ar
    43    37    41   ar
    44    42    41    1
    45    44    38    1
    46    38    39   ar
    47    41    40   ar
    48    40    39   ar
    49    40    43    1
    50    39    48    1
    51    48    47    3
