@<TRIPOS>MOLECULE
mol_data/noopt/geoms/mol2/13hd6el-4df12ee.out
 51 54 0 0 0
SMALL
GASTEIGER

@<TRIPOS>ATOM
      1 C           1.1215   -0.3259    0.0002 C.ar    1  LIG1        0.0243
      2 C           0.7176    0.9721   -0.0005 C.ar    1  LIG1        0.0603
      3 C          -0.7144    0.9744    0.0003 C.ar    1  LIG1        0.0976
      4 C          -1.1226   -0.3223   -0.0003 C.ar    1  LIG1        0.0687
      5 N          -0.0018   -1.1217    0.0001 N.ar    1  LIG1       -0.3579
      6 H          -0.0034   -2.1157   -0.0003 H       1  LIG1        0.1654
      7 H           2.3167   -0.8373    0.0007 H       1  LIG1        0.0826
      8 N           1.4918    2.0164   -0.0003 N.pl3   1  LIG1       -0.3558
      9 H           2.3463    1.7980   -0.4717 H       1  LIG1        0.1424
     10 H           1.0345    2.7705   -0.4717 H       1  LIG1        0.1424
     11 N          -2.1652    2.9444    0.0016 N.1     1  LIG1       -0.1907
     12 C          -1.4853    2.0212    0.0010 C.1     1  LIG1        0.1031
     13 C          -2.5002   -2.2250   -0.0210 C.ar    1  LIG1        0.1232
     14 C          -2.3194   -0.8299   -0.0001 C.ar    1  LIG1        0.0369
     15 C          -3.4501   -0.0114    0.0210 C.ar    1  LIG1       -0.0060
     16 C          -4.7120   -0.6083    0.0204 C.ar    1  LIG1        0.1467
     17 C          -4.7903   -2.0130   -0.0016 C.ar    1  LIG1        0.1152
     18 N          -3.7099   -2.8177   -0.0220 N.ar    1  LIG1       -0.2340
     19 H          -3.3484    1.0830    0.0367 H       1  LIG1        0.0662
     20 C          -1.4783   -3.0283   -0.0410 C.1     1  LIG1       -0.0491
     21 C          -0.5341   -3.7706   -0.0595 C.1     1  LIG1       -0.1124
     22 H           0.3070   -4.4318   -0.0759 H       1  LIG1        0.1232
     23 O          -5.7953    0.1100    0.0393 O.3     1  LIG1       -0.4929
     24 C          -5.4481    1.4972    0.0462 C.3     1  LIG1        0.0789
     25 H          -6.3401    2.0881    0.0617 H       1  LIG1        0.0660
     26 H          -4.8617    1.7138    0.9147 H       1  LIG1        0.0660
     27 H          -4.8828    1.7278   -0.8324 H       1  LIG1        0.0660
     28 C          -7.1312   -1.8574   -0.0031 C.ar    1  LIG1        0.0619
     29 C          -8.3535   -2.5570   -0.0031 C.ar    1  LIG1       -0.0295
     30 C          -5.9423   -2.6153   -0.0030 C.ar    1  LIG1        0.0248
     31 C          -8.3926   -3.9495   -0.0037 C.ar    1  LIG1        0.0611
     32 H          -9.2828   -1.9918   -0.0029 H       1  LIG1        0.0639
     33 C          -5.9808   -4.0055   -0.0037 C.ar    1  LIG1       -0.0089
     34 C          -7.2050   -4.6822   -0.0041 C.ar    1  LIG1        0.1282
     35 H          -5.0503   -4.5673   -0.0035 H       1  LIG1        0.0661
     36 N          -7.1830    0.5886   -0.0025 N.1     1  LIG1       -0.1908
     37 C          -7.1587   -0.5577   -0.0027 C.1     1  LIG1        0.0998
     38 O          -7.2348   -5.9819   -0.0045 O.3     1  LIG1       -0.5060
     39 H          -6.3374   -6.3229   -0.0046 H       1  LIG1        0.2922
     40 C          -9.5387   -4.5630   -0.0038 C.ar    1  LIG1        0.1549
     41 C         -10.8622   -4.1742    0.0109 C.ar    1  LIG1        0.0858
     42 C         -11.6514   -5.3883    0.0001 C.ar    1  LIG1        0.0783
     43 C         -10.7573   -6.4390   -0.0206 C.ar    1  LIG1        0.1092
     44 O          -9.4484   -5.9555   -0.0235 O.2     1  LIG1       -0.4603
     45 H         -10.8518   -7.7354   -0.0375 H       1  LIG1        0.1042
     46 C         -11.3357   -2.9637    0.0307 C.1     1  LIG1       -0.0646
     47 C         -11.7733   -1.8452    0.0491 C.1     1  LIG1       -0.1138
     48 H         -12.1630   -0.8488    0.0654 H       1  LIG1        0.1232
     49 C         -12.9500   -5.4480    0.0085 C.1     1  LIG1       -0.0653
     50 C         -14.1499   -5.5032    0.0163 C.1     1  LIG1       -0.1138
     51 H         -15.2187   -5.5523    0.0233 H       1  LIG1        0.1232
@<TRIPOS>BOND
     1    27    24    1
     2    10     8    1
     3     9     8    1
     4    22    21    1
     5    21    20    3
     6    20    13    1
     7    45    43    1
     8    44    43   ar
     9    44    40   ar
    10    18    13   ar
    11    18    17   ar
    12    13    14   ar
    13    43    42   ar
    14    39    38    1
    15    38    34    1
    16    34    31   ar
    17    34    33   ar
    18    40    31    1
    19    40    41   ar
    20    31    29   ar
    21    33    35    1
    22    33    30   ar
    23    29    28   ar
    24    29    32    1
    25    28    30   ar
    26    28    37    1
    27    30    17    1
    28    37    36    3
    29    17    16   ar
    30     2     8    1
    31     2     1   ar
    32     2     3   ar
    33     4    14    1
    34     4     5   ar
    35     4     3   ar
    36     6     5    1
    37    14    15   ar
    38    42    49    1
    39    42    41   ar
    40     5     1   ar
    41     1     7    1
    42     3    12    1
    43    12    11    3
    44    49    50    3
    45    41    46    1
    46    50    51    1
    47    16    15   ar
    48    16    23    1
    49    15    19    1
    50    46    47    3
    51    23    24    1
    52    24    25    1
    53    24    26    1
    54    47    48    1
