@<TRIPOS>MOLECULE
mol_data/noopt/geoms/mol2/13hd13ed(200)12la(300)12ei(90).out
 47 50 0 0 0
SMALL
GASTEIGER

@<TRIPOS>ATOM
      1 C           1.1215   -0.3259    0.0002 C.ar    1  LIG1        0.0243
      2 C           0.7176    0.9721   -0.0005 C.ar    1  LIG1        0.0604
      3 C          -0.7144    0.9744    0.0003 C.ar    1  LIG1        0.0990
      4 C          -1.1226   -0.3223   -0.0003 C.ar    1  LIG1        0.0835
      5 N          -0.0018   -1.1217    0.0001 N.ar    1  LIG1       -0.3568
      6 H          -0.0034   -2.1157   -0.0003 H       1  LIG1        0.1655
      7 H           2.3167   -0.8373    0.0007 H       1  LIG1        0.0826
      8 N           1.4918    2.0164   -0.0003 N.pl3   1  LIG1       -0.3558
      9 H           2.3463    1.7980   -0.4717 H       1  LIG1        0.1424
     10 H           1.0345    2.7705   -0.4717 H       1  LIG1        0.1424
     11 N          -2.1652    2.9444    0.0016 N.1     1  LIG1       -0.1907
     12 C          -1.4853    2.0212    0.0010 C.1     1  LIG1        0.1032
     13 C          -2.3194   -0.8299   -0.0001 C.ar    1  LIG1        0.0816
     14 C          -2.7483   -2.0775   -0.3280 C.ar    1  LIG1        0.0694
     15 C          -4.1691   -2.1016   -0.1509 C.ar    1  LIG1        0.0961
     16 C          -4.5458   -0.8681    0.2791 C.ar    1  LIG1        0.1051
     17 N          -3.4165   -0.0863    0.3723 N.ar    1  LIG1       -0.3485
     18 H          -3.3963    0.8640    0.6630 H       1  LIG1        0.1661
     19 C          -2.0030   -3.0641   -0.7295 C.1     1  LIG1       -0.0662
     20 C          -1.3144   -3.9757   -1.1005 C.1     1  LIG1       -0.1138
     21 H          -0.7009   -4.7877   -1.4310 H       1  LIG1        0.1232
     22 N          -5.6515   -4.0074   -0.5463 N.1     1  LIG1       -0.1908
     23 C          -4.9568   -3.1142   -0.3610 C.1     1  LIG1        0.1026
     24 C          -5.7220   -0.4012    0.5762 C.ar    1  LIG1        0.1945
     25 C          -6.5870    0.5150    0.0146 C.ar    1  LIG1        0.1678
     26 C          -7.7529    0.5645    0.8721 C.ar    1  LIG1        0.0298
     27 C          -7.5229   -0.3253    1.9012 C.ar    1  LIG1        0.1755
     28 O          -6.2773   -0.9332    1.7409 O.2     1  LIG1       -0.4464
     29 O          -6.4147    1.2110   -1.0698 O.3     1  LIG1       -0.4912
     30 C          -5.0430    1.1425   -1.4680 C.3     1  LIG1        0.0790
     31 H          -4.9016    1.7154   -2.3606 H       1  LIG1        0.0660
     32 H          -4.4252    1.5380   -0.6888 H       1  LIG1        0.0660
     33 H          -4.7755    0.1231   -1.6523 H       1  LIG1        0.0660
     34 H          -8.7999    1.3118    0.6848 H       1  LIG1        0.0693
     35 C          -8.1800   -0.7148    2.9531 C.ar    1  LIG1        0.1853
     36 C          -8.0038   -0.6104    4.3173 C.ar    1  LIG1        0.0763
     37 C          -9.1310   -1.2786    4.9335 C.ar    1  LIG1        0.0034
     38 C          -9.9217   -1.7472    3.9045 C.ar    1  LIG1        0.0968
     39 O          -9.3564   -1.4119    2.6738 O.2     1  LIG1       -0.4583
     40 H         -11.0377   -2.4088    3.8214 H       1  LIG1        0.1032
     41 C          -7.0275   -0.0317    4.9514 C.1     1  LIG1       -0.0655
     42 C          -6.1255    0.5029    5.5373 C.1     1  LIG1       -0.1138
     43 H          -5.3219    0.9792    6.0593 H       1  LIG1        0.1232
     44 C          -9.3341   -1.3990    6.2122 C.3     1  LIG1       -0.0355
     45 H          -8.5176   -1.9305    6.6546 H       1  LIG1        0.0279
     46 H         -10.2431   -1.9379    6.3799 H       1  LIG1        0.0279
     47 H          -9.4086   -0.4275    6.6545 H       1  LIG1        0.0279
@<TRIPOS>BOND
     1    31    30    1
     2    33    30    1
     3    30    29    1
     4    30    32    1
     5    21    20    1
     6    20    19    3
     7    29    25    1
     8    19    14    1
     9    22    23    3
    10    10     8    1
    11     9     8    1
    12    23    15    1
    13    14    15   ar
    14    14    13   ar
    15    15    16   ar
    16     2     8    1
    17     2     1   ar
    18     2     3   ar
    19     6     5    1
    20     4    13    1
    21     4     5   ar
    22     4     3   ar
    23    13    17   ar
    24     5     1   ar
    25     1     7    1
    26     3    12    1
    27    12    11    3
    28    25    24   ar
    29    25    26   ar
    30    16    17   ar
    31    16    24    1
    32    17    18    1
    33    24    28   ar
    34    34    26    1
    35    26    27   ar
    36    28    27   ar
    37    27    35    1
    38    39    35   ar
    39    39    38   ar
    40    35    36   ar
    41    40    38    1
    42    38    37   ar
    43    36    37   ar
    44    36    41    1
    45    37    44    1
    46    41    42    3
    47    42    43    1
    48    44    46    1
    49    44    47    1
    50    44    45    1
