@<TRIPOS>MOLECULE
mol_data/noopt/geoms/mol2/13hd13hd-13hd.out
 35 37 0 0 0
SMALL
GASTEIGER

@<TRIPOS>ATOM
      1 C           1.1215   -0.3259    0.0002 C.ar    1  LIG1        0.0243
      2 C           0.7176    0.9721   -0.0005 C.ar    1  LIG1        0.0604
      3 C          -0.7144    0.9744    0.0003 C.ar    1  LIG1        0.0990
      4 C          -1.1226   -0.3223   -0.0003 C.ar    1  LIG1        0.0842
      5 N          -0.0018   -1.1217    0.0001 N.ar    1  LIG1       -0.3568
      6 H          -0.0034   -2.1157   -0.0003 H       1  LIG1        0.1655
      7 H           2.3167   -0.8373    0.0007 H       1  LIG1        0.0826
      8 N           1.4918    2.0164   -0.0003 N.pl3   1  LIG1       -0.3558
      9 H           2.3463    1.7980   -0.4717 H       1  LIG1        0.1424
     10 H           1.0345    2.7705   -0.4717 H       1  LIG1        0.1424
     11 N          -2.1652    2.9444    0.0016 N.1     1  LIG1       -0.1907
     12 C          -1.4853    2.0212    0.0010 C.1     1  LIG1        0.1032
     13 C          -2.3194   -0.8299   -0.0001 C.ar    1  LIG1        0.0869
     14 C          -2.7274   -2.1266   -0.0005 C.ar    1  LIG1        0.0699
     15 C          -4.1594   -2.1244    0.0011 C.ar    1  LIG1        0.0997
     16 C          -4.5635   -0.8264    0.0006 C.ar    1  LIG1        0.0846
     17 N          -3.4402   -0.0305    0.0003 N.ar    1  LIG1       -0.3493
     18 H          -3.4386    0.9635   -0.0001 H       1  LIG1        0.1661
     19 N          -1.9565   -3.1734   -0.0006 N.pl3   1  LIG1       -0.3553
     20 H          -2.4164   -3.9259   -0.4720 H       1  LIG1        0.1424
     21 H          -1.1015   -2.9576   -0.4721 H       1  LIG1        0.1424
     22 N          -5.6165   -4.0898    0.0034 N.1     1  LIG1       -0.1907
     23 C          -4.9336   -3.1687    0.0023 C.1     1  LIG1        0.1032
     24 C          -5.7587   -0.3150    0.0014 C.ar    1  LIG1        0.0864
     25 C          -6.1626    0.9830    0.0016 C.ar    1  LIG1        0.0693
     26 C          -7.5946    0.9853    0.0038 C.ar    1  LIG1        0.0903
     27 C          -8.0028   -0.3114    0.0030 C.ar    1  LIG1        0.0215
     28 N          -6.8820   -1.1108    0.0021 N.ar    1  LIG1       -0.3568
     29 H          -6.8836   -2.1048    0.0013 H       1  LIG1        0.1655
     30 H          -9.1996   -0.8190    0.0041 H       1  LIG1        0.0820
     31 N          -5.3884    2.0273    0.0015 N.pl3   1  LIG1       -0.3553
     32 H          -4.5340    1.8088   -0.4699 H       1  LIG1        0.1424
     33 H          -5.8458    2.7813   -0.4699 H       1  LIG1        0.1424
     34 N          -9.0454    2.9553    0.0072 N.1     1  LIG1       -0.1908
     35 C          -8.3655    2.0321    0.0056 C.1     1  LIG1        0.1025
@<TRIPOS>BOND
     1    21    19    1
     2    20    19    1
     3    10     8    1
     4     9     8    1
     5    33    31    1
     6    32    31    1
     7    19    14    1
     8     2     8    1
     9     2     1   ar
    10     2     3   ar
    11    14    13   ar
    12    14    15   ar
    13     4    13    1
    14     4     5   ar
    15     4     3   ar
    16     6     5    1
    17    18    17    1
    18    13    17   ar
    19     5     1   ar
    20     1     7    1
    21     3    12    1
    22    17    16   ar
    23    16    15   ar
    24    16    24    1
    25    12    11    3
    26    15    23    1
    27    29    28    1
    28    24    25   ar
    29    24    28   ar
    30    31    25    1
    31    25    26   ar
    32    28    27   ar
    33    23    22    3
    34    27    26   ar
    35    27    30    1
    36    26    35    1
    37    35    34    3
