@<TRIPOS>MOLECULE
mol_data/noopt/geoms/mol2/13hd13hd-.out
 24 25 0 0 0
SMALL
GASTEIGER

@<TRIPOS>ATOM
      1 C           1.1215   -0.3259    0.0002 C.ar    1  LIG1        0.0243
      2 C           0.7176    0.9721   -0.0005 C.ar    1  LIG1        0.0604
      3 C          -0.7144    0.9744    0.0003 C.ar    1  LIG1        0.0990
      4 C          -1.1226   -0.3223   -0.0003 C.ar    1  LIG1        0.0841
      5 N          -0.0018   -1.1217    0.0001 N.ar    1  LIG1       -0.3568
      6 H          -0.0034   -2.1157   -0.0003 H       1  LIG1        0.1655
      7 H           2.3167   -0.8373    0.0007 H       1  LIG1        0.0826
      8 N           1.4918    2.0164   -0.0003 N.pl3   1  LIG1       -0.3558
      9 H           2.3463    1.7980   -0.4717 H       1  LIG1        0.1424
     10 H           1.0345    2.7705   -0.4717 H       1  LIG1        0.1424
     11 N          -2.1652    2.9444    0.0016 N.1     1  LIG1       -0.1907
     12 C          -1.4853    2.0212    0.0010 C.1     1  LIG1        0.1032
     13 C          -2.3194   -0.8299   -0.0001 C.ar    1  LIG1        0.0864
     14 C          -2.7274   -2.1266   -0.0005 C.ar    1  LIG1        0.0693
     15 C          -4.1594   -2.1244    0.0011 C.ar    1  LIG1        0.0903
     16 C          -4.5635   -0.8264    0.0006 C.ar    1  LIG1        0.0215
     17 N          -3.4402   -0.0305    0.0003 N.ar    1  LIG1       -0.3568
     18 H          -3.4386    0.9635   -0.0001 H       1  LIG1        0.1655
     19 H          -5.7587   -0.3150    0.0014 H       1  LIG1        0.0820
     20 N          -1.9565   -3.1734   -0.0006 N.pl3   1  LIG1       -0.3553
     21 H          -2.4164   -3.9259   -0.4720 H       1  LIG1        0.1424
     22 H          -1.1015   -2.9576   -0.4721 H       1  LIG1        0.1424
     23 N          -5.6165   -4.0898    0.0034 N.1     1  LIG1       -0.1908
     24 C          -4.9336   -3.1687    0.0023 C.1     1  LIG1        0.1025
@<TRIPOS>BOND
     1    22    20    1
     2    21    20    1
     3    10     8    1
     4     9     8    1
     5    20    14    1
     6     2     8    1
     7     2     1   ar
     8     2     3   ar
     9    14    13   ar
    10    14    15   ar
    11     4    13    1
    12     4     5   ar
    13     4     3   ar
    14     6     5    1
    15    18    17    1
    16    13    17   ar
    17     5     1   ar
    18     1     7    1
    19     3    12    1
    20    17    16   ar
    21    16    15   ar
    22    16    19    1
    23    12    11    3
    24    15    24    1
    25    24    23    3
