@<TRIPOS>MOLECULE
mol_data/noopt/geoms/mol2/13hd12ff13dh-4if.out
 47 50 0 0 0
SMALL
GASTEIGER

@<TRIPOS>ATOM
      1 C           1.1215   -0.3259    0.0002 C.ar    1  LIG1        0.0244
      2 C           0.7176    0.9721   -0.0005 C.ar    1  LIG1        0.0604
      3 C          -0.7144    0.9744    0.0003 C.ar    1  LIG1        0.1007
      4 C          -1.1226   -0.3223   -0.0003 C.ar    1  LIG1        0.1053
      5 N          -0.0018   -1.1217    0.0001 N.ar    1  LIG1       -0.3555
      6 H          -0.0034   -2.1157   -0.0003 H       1  LIG1        0.1655
      7 H           2.3167   -0.8373    0.0007 H       1  LIG1        0.0826
      8 N           1.4918    2.0164   -0.0003 N.pl3   1  LIG1       -0.3558
      9 H           2.3463    1.7980   -0.4717 H       1  LIG1        0.1424
     10 H           1.0345    2.7705   -0.4717 H       1  LIG1        0.1424
     11 N          -2.1652    2.9444    0.0016 N.1     1  LIG1       -0.1907
     12 C          -1.4853    2.0212    0.0010 C.1     1  LIG1        0.1032
     13 C          -2.3194   -0.8299   -0.0001 C.ar    1  LIG1        0.1981
     14 C          -3.6024   -0.3233    0.0148 C.ar    1  LIG1        0.2074
     15 C          -4.4979   -1.4613    0.0044 C.ar    1  LIG1        0.2074
     16 C          -3.7022   -2.5883   -0.0164 C.ar    1  LIG1        0.1981
     17 O          -2.3551   -2.2249   -0.0196 O.2     1  LIG1       -0.4442
     18 O          -3.9648    0.9250    0.0347 O.3     1  LIG1       -0.5008
     19 H          -4.9232    0.9804    0.0395 H       1  LIG1        0.2924
     20 O          -5.7966   -1.4036    0.0131 O.3     1  LIG1       -0.5008
     21 H          -6.1568   -2.2934    0.0153 H       1  LIG1        0.2924
     22 C          -3.9133   -3.8710   -0.0331 C.ar    1  LIG1        0.1058
     23 C          -5.0771   -4.5734   -0.0282 C.ar    1  LIG1        0.1013
     24 C          -4.7373   -5.9643   -0.0528 C.ar    1  LIG1        0.0685
     25 C          -3.3807   -6.0506   -0.0734 C.ar    1  LIG1        0.0696
     26 N          -2.8723   -4.7713   -0.0610 N.ar    1  LIG1       -0.3491
     27 H          -1.9068   -4.5352   -0.0712 H       1  LIG1        0.1661
     28 N          -7.3335   -3.6286    0.0175 N.1     1  LIG1       -0.1907
     29 C          -6.2760   -4.0714   -0.0039 C.1     1  LIG1        0.1033
     30 N          -5.5695   -6.9630   -0.0554 N.pl3   1  LIG1       -0.3553
     31 H          -6.4095   -6.6956   -0.5275 H       1  LIG1        0.1424
     32 H          -5.1550   -7.7410   -0.5276 H       1  LIG1        0.1424
     33 C          -3.1600   -8.3859   -0.1128 C.ar    1  LIG1       -0.0411
     34 C          -2.2740   -9.4803   -0.1395 C.ar    1  LIG1       -0.0548
     35 C          -2.6020   -7.0912   -0.0995 C.ar    1  LIG1        0.0065
     36 C          -0.8933   -9.2960   -0.1530 C.ar    1  LIG1       -0.0199
     37 H          -2.6833  -10.4880   -0.1500 H       1  LIG1        0.0622
     38 C          -1.2237   -6.9067   -0.1129 C.ar    1  LIG1       -0.0108
     39 C          -0.3600   -8.0066   -0.1399 C.ar    1  LIG1        0.1175
     40 H          -0.8178   -5.8983   -0.1021 H       1  LIG1        0.0661
     41 H          -0.1044  -10.3291   -0.1778 H       1  LIG1        0.0654
     42 C          -4.4388   -8.6211   -0.1015 C.3     1  LIG1       -0.0391
     43 H          -4.6272   -9.5441    0.4060 H       1  LIG1        0.0278
     44 H          -4.7981   -8.6873   -1.1073 H       1  LIG1        0.0278
     45 H          -4.9433   -7.8256    0.4059 H       1  LIG1        0.0278
     46 O           0.9277   -7.8280   -0.1522 O.3     1  LIG1       -0.5067
     47 H           1.1207   -6.8876   -0.1552 H       1  LIG1        0.2921
@<TRIPOS>BOND
     1    44    42    1
     2    32    30    1
     3    31    30    1
     4    10     8    1
     5     9     8    1
     6    41    36    1
     7    47    46    1
     8    36    39   ar
     9    36    34   ar
    10    46    39    1
    11    37    34    1
    12    39    38   ar
    13    34    33   ar
    14    38    40    1
    15    38    35   ar
    16    33    42    1
    17    33    35   ar
    18    42    45    1
    19    42    43    1
    20    35    25    1
    21    25    26   ar
    22    25    24   ar
    23    27    26    1
    24    26    22   ar
    25    30    24    1
    26    24    23   ar
    27    22    23   ar
    28    22    16    1
    29    23    29    1
    30    17    16   ar
    31    17    13   ar
    32    16    15   ar
    33    29    28    3
    34     2     8    1
    35     2     1   ar
    36     2     3   ar
    37     4    13    1
    38     4     5   ar
    39     4     3   ar
    40     6     5    1
    41    13    14   ar
    42     5     1   ar
    43     1     7    1
    44     3    12    1
    45    12    11    3
    46    15    20    1
    47    15    14   ar
    48    20    21    1
    49    14    18    1
    50    18    19    1
