@<TRIPOS>MOLECULE
mol_data/noopt/geoms/mol2/13hd13da-12li-6ld.out
 50 53 0 0 0
SMALL
GASTEIGER

@<TRIPOS>ATOM
      1 C           1.1215   -0.3259    0.0002 C.ar    1  LIG1        0.0243
      2 C           0.7176    0.9721   -0.0005 C.ar    1  LIG1        0.0604
      3 C          -0.7144    0.9744    0.0003 C.ar    1  LIG1        0.0990
      4 C          -1.1226   -0.3223   -0.0003 C.ar    1  LIG1        0.0836
      5 N          -0.0018   -1.1217    0.0001 N.ar    1  LIG1       -0.3568
      6 H          -0.0034   -2.1157   -0.0003 H       1  LIG1        0.1655
      7 H           2.3167   -0.8373    0.0007 H       1  LIG1        0.0826
      8 N           1.4918    2.0164   -0.0003 N.pl3   1  LIG1       -0.3558
      9 H           2.3463    1.7980   -0.4717 H       1  LIG1        0.1424
     10 H           1.0345    2.7705   -0.4717 H       1  LIG1        0.1424
     11 N          -2.1652    2.9444    0.0016 N.1     1  LIG1       -0.1907
     12 C          -1.4853    2.0212    0.0010 C.1     1  LIG1        0.1032
     13 C          -2.3194   -0.8299   -0.0001 C.ar    1  LIG1        0.0823
     14 C          -3.5353   -0.2219   -0.0003 C.ar    1  LIG1        0.0791
     15 C          -4.5290   -1.2530    0.0012 C.ar    1  LIG1       -0.0152
     16 C          -3.8767   -2.4457    0.0005 C.ar    1  LIG1        0.0875
     17 N          -2.5238   -2.1913    0.0002 N.ar    1  LIG1       -0.3495
     18 H          -1.8081   -2.8811   -0.0004 H       1  LIG1        0.1661
     19 N          -3.9431    2.1904   -0.0003 N.1     1  LIG1       -0.1908
     20 C          -3.7520    1.0599   -0.0003 C.1     1  LIG1        0.1014
     21 H          -5.8179   -1.0837    0.0025 H       1  LIG1        0.0653
     22 C          -4.3398   -3.6604    0.0012 C.ar    1  LIG1        0.1934
     23 C          -5.5940   -4.2347    0.0165 C.ar    1  LIG1        0.1706
     24 C          -5.3937   -5.6688    0.0065 C.ar    1  LIG1        0.0379
     25 C          -4.0297   -5.8758   -0.0144 C.ar    1  LIG1        0.1474
     26 O          -3.3585   -4.6526   -0.0181 O.2     1  LIG1       -0.4491
     27 O          -6.7453   -3.6312    0.0363 O.3     1  LIG1       -0.4910
     28 C          -6.5421   -2.2157    0.0434 C.3     1  LIG1        0.0790
     29 H          -7.4899   -1.7194    0.0595 H       1  LIG1        0.0660
     30 H          -5.9805   -1.9404    0.9117 H       1  LIG1        0.0660
     31 H          -6.0038   -1.9282   -0.8354 H       1  LIG1        0.0660
     32 C          -6.3353   -6.5656    0.0157 C.3     1  LIG1       -0.0326
     33 H          -5.9884   -7.4417    0.5226 H       1  LIG1        0.0280
     34 H          -6.5987   -6.8165   -0.9906 H       1  LIG1        0.0280
     35 H          -7.1935   -6.1764    0.5226 H       1  LIG1        0.0280
     36 C          -1.8530   -6.7588   -0.0396 C.ar    1  LIG1        0.2255
     37 C          -3.2510   -6.9167   -0.0308 C.ar    1  LIG1        0.0803
     38 C          -3.7759   -8.2103   -0.0397 C.ar    1  LIG1       -0.0271
     39 C          -2.8949   -9.2929   -0.0573 C.ar    1  LIG1        0.0707
     40 C          -1.5121   -9.0332   -0.0651 C.ar    1  LIG1        0.0488
     41 N          -0.9885   -7.7918   -0.0565 N.ar    1  LIG1       -0.2194
     42 H          -4.8630   -8.3730   -0.0343 H       1  LIG1        0.0640
     43 H          -0.6520  -10.0079   -0.0813 H       1  LIG1        0.0844
     44 O          -1.3169   -5.5745   -0.0317 O.3     1  LIG1       -0.4792
     45 C           0.1080   -5.6956   -0.0289 C.3     1  LIG1        0.0804
     46 H           0.5489   -4.7207   -0.0226 H       1  LIG1        0.0660
     47 H           0.4185   -6.2331    0.8427 H       1  LIG1        0.0660
     48 H           0.4228   -6.2237   -0.9046 H       1  LIG1        0.0660
     49 N          -3.7209  -11.5957   -0.0744 N.1     1  LIG1       -0.1908
     50 C          -3.3338  -10.5165   -0.0663 C.1     1  LIG1        0.1007
@<TRIPOS>BOND
     1    34    32    1
     2    48    45    1
     3    31    28    1
     4    10     8    1
     5     9     8    1
     6    43    40    1
     7    49    50    3
     8    50    39    1
     9    40    39   ar
    10    40    41   ar
    11    39    38   ar
    12    41    36   ar
    13    38    42    1
    14    38    37   ar
    15    36    44    1
    16    36    37   ar
    17    44    45    1
    18    37    25    1
    19    45    46    1
    20    45    47    1
    21    26    25   ar
    22    26    22   ar
    23    25    24   ar
    24     2     8    1
    25     2     1   ar
    26     2     3   ar
    27    18    17    1
    28    14    20    1
    29    14    13   ar
    30    14    15   ar
    31     4    13    1
    32     4     5   ar
    33     4     3   ar
    34     6     5    1
    35    20    19    3
    36    13    17   ar
    37     5     1   ar
    38    17    16   ar
    39     1     7    1
    40     3    12    1
    41    16    15   ar
    42    16    22    1
    43    12    11    3
    44    15    21    1
    45    22    23   ar
    46    24    32    1
    47    24    23   ar
    48    32    35    1
    49    32    33    1
    50    23    27    1
    51    27    28    1
    52    28    29    1
    53    28    30    1
