@<TRIPOS>MOLECULE
mol_data/noopt/geoms/mol2/13he6ff-13dl6ia-.out
 50 53 0 0 0
SMALL
GASTEIGER

@<TRIPOS>ATOM
      1 C           1.1215   -0.3259    0.0002 C.ar    1  LIG1        0.0242
      2 C           0.7176    0.9721   -0.0005 C.ar    1  LIG1        0.0583
      3 C          -0.7144    0.9744    0.0003 C.ar    1  LIG1        0.0707
      4 C          -1.1226   -0.3223   -0.0003 C.ar    1  LIG1        0.0691
      5 N          -0.0018   -1.1217    0.0001 N.ar    1  LIG1       -0.3579
      6 H          -0.0034   -2.1157   -0.0003 H       1  LIG1        0.1654
      7 H           2.3167   -0.8373    0.0007 H       1  LIG1        0.0826
      8 N           1.4918    2.0164   -0.0003 N.pl3   1  LIG1       -0.3559
      9 H           2.3463    1.7980   -0.4717 H       1  LIG1        0.1424
     10 H           1.0345    2.7705   -0.4717 H       1  LIG1        0.1424
     11 C          -1.4853    2.0212    0.0010 C.1     1  LIG1       -0.0657
     12 C          -2.1976    2.9884    0.0016 C.1     1  LIG1       -0.1138
     13 H          -2.8321    3.8500    0.0022 H       1  LIG1        0.1232
     14 C          -2.5002   -2.2250   -0.0210 C.ar    1  LIG1        0.2225
     15 C          -2.3194   -0.8299   -0.0001 C.ar    1  LIG1        0.0644
     16 C          -3.4501   -0.0114    0.0210 C.ar    1  LIG1       -0.0037
     17 C          -4.7120   -0.6083    0.0204 C.ar    1  LIG1        0.1451
     18 C          -4.7903   -2.0130   -0.0016 C.ar    1  LIG1        0.1335
     19 N          -3.7099   -2.8177   -0.0220 N.ar    1  LIG1       -0.2072
     20 H          -3.3484    1.0830    0.0367 H       1  LIG1        0.0663
     21 O          -1.4782   -3.0283   -0.0410 O.3     1  LIG1       -0.4919
     22 H          -0.6671   -2.5149   -0.0459 H       1  LIG1        0.2937
     23 O          -5.7953    0.1100    0.0393 O.3     1  LIG1       -0.5045
     24 H          -6.5625   -0.4671    0.0440 H       1  LIG1        0.2922
     25 C          -5.9424   -2.6153   -0.0030 C.ar    1  LIG1        0.0904
     26 C          -7.2032   -2.1073    0.0122 C.ar    1  LIG1        0.1207
     27 C          -8.1107   -3.2151    0.0031 C.ar    1  LIG1        0.1633
     28 C          -7.3645   -4.3512   -0.0191 C.ar    1  LIG1        0.0922
     29 N          -6.0364   -3.9886   -0.0225 N.ar    1  LIG1       -0.3488
     30 H          -5.2675   -4.6184   -0.0373 H       1  LIG1        0.1661
     31 N          -7.8039    0.2640    0.0512 N.1     1  LIG1       -0.1907
     32 C          -7.5224   -0.8473    0.0330 C.1     1  LIG1        0.1050
     33 O          -9.4090   -3.1502    0.0136 O.3     1  LIG1       -0.4917
     34 C          -9.8185   -1.7801    0.0173 C.3     1  LIG1        0.0789
     35 H         -10.8871   -1.7272    0.0258 H       1  LIG1        0.0660
     36 H          -9.4304   -1.2942    0.8882 H       1  LIG1        0.0660
     37 H          -9.4443   -1.2936   -0.8590 H       1  LIG1        0.0660
     38 C          -6.7619   -6.6213   -0.0641 C.ar    1  LIG1        0.0474
     39 C          -7.7283   -5.5991   -0.0346 C.ar    1  LIG1        0.0229
     40 C          -9.0775   -5.9574   -0.0222 C.ar    1  LIG1       -0.0494
     41 C          -9.4132   -7.3123   -0.0397 C.ar    1  LIG1       -0.0430
     42 C          -8.3747   -8.2611   -0.0692 C.ar    1  LIG1        0.0279
     43 N          -7.0680   -7.9331   -0.0813 N.ar    1  LIG1       -0.2595
     44 H          -9.8609   -5.1866   -0.0003 H       1  LIG1        0.0625
     45 H          -8.6368   -9.5342   -0.0863 H       1  LIG1        0.0829
     46 C          -5.4930   -6.3376   -0.0765 C.3     1  LIG1       -0.0217
     47 H          -5.3308   -5.4061    0.4245 H       1  LIG1        0.0293
     48 H          -5.1543   -6.2618   -1.0887 H       1  LIG1        0.0293
     49 H          -4.9497   -7.1114    0.4244 H       1  LIG1        0.0293
     50 H         -10.6549   -7.6972   -0.0294 H       1  LIG1        0.0633
@<TRIPOS>BOND
     1    48    46    1
     2    37    34    1
     3    10     8    1
     4     9     8    1
     5    45    42    1
     6    43    42   ar
     7    43    38   ar
     8    46    38    1
     9    46    49    1
    10    46    47    1
    11    42    41   ar
    12    38    39   ar
    13    22    21    1
    14    21    14    1
    15    41    50    1
    16    41    40   ar
    17    30    29    1
    18    39    40   ar
    19    39    28    1
    20    29    28   ar
    21    29    25   ar
    22    40    44    1
    23    19    14   ar
    24    19    18   ar
    25    14    15   ar
    26    28    27   ar
    27    25    18    1
    28    25    26   ar
    29    18    17   ar
    30     2     8    1
    31     2     1   ar
    32     2     3   ar
    33     4    15    1
    34     4     5   ar
    35     4     3   ar
    36     6     5    1
    37    15    16   ar
    38     5     1   ar
    39     1     7    1
    40     3    11    1
    41    11    12    3
    42    12    13    1
    43    27    26   ar
    44    27    33    1
    45    26    32    1
    46    33    34    1
    47    34    35    1
    48    34    36    1
    49    17    16   ar
    50    17    23    1
    51    16    20    1
    52    32    31    3
    53    23    24    1
