@<TRIPOS>MOLECULE
mol_data/noopt/geoms/mol2/13he13he-13he-13he.out
 50 53 0 0 0
SMALL
GASTEIGER

@<TRIPOS>ATOM
      1 C           1.1215   -0.3259    0.0002 C.ar    1  LIG1        0.0243
      2 C           0.7176    0.9721   -0.0005 C.ar    1  LIG1        0.0584
      3 C          -0.7144    0.9744    0.0003 C.ar    1  LIG1        0.0720
      4 C          -1.1226   -0.3223   -0.0003 C.ar    1  LIG1        0.0821
      5 N          -0.0018   -1.1217    0.0001 N.ar    1  LIG1       -0.3569
      6 H          -0.0034   -2.1157   -0.0003 H       1  LIG1        0.1655
      7 H           2.3167   -0.8373    0.0007 H       1  LIG1        0.0826
      8 N           1.4918    2.0164   -0.0003 N.pl3   1  LIG1       -0.3559
      9 H           2.3463    1.7980   -0.4717 H       1  LIG1        0.1424
     10 H           1.0345    2.7705   -0.4717 H       1  LIG1        0.1424
     11 C          -1.4853    2.0212    0.0010 C.1     1  LIG1       -0.0656
     12 C          -2.1976    2.9884    0.0016 C.1     1  LIG1       -0.1138
     13 H          -2.8321    3.8500    0.0022 H       1  LIG1        0.1232
     14 C          -2.3194   -0.8299   -0.0001 C.ar    1  LIG1        0.0868
     15 C          -2.7274   -2.1266   -0.0005 C.ar    1  LIG1        0.0679
     16 C          -4.1594   -2.1244    0.0011 C.ar    1  LIG1        0.0727
     17 C          -4.5635   -0.8264    0.0006 C.ar    1  LIG1        0.0826
     18 N          -3.4402   -0.0305    0.0003 N.ar    1  LIG1       -0.3493
     19 H          -3.4386    0.9635   -0.0001 H       1  LIG1        0.1661
     20 N          -1.9565   -3.1734   -0.0006 N.pl3   1  LIG1       -0.3553
     21 H          -2.4164   -3.9259   -0.4720 H       1  LIG1        0.1424
     22 H          -1.1015   -2.9576   -0.4721 H       1  LIG1        0.1424
     23 C          -4.9336   -3.1687    0.0023 C.1     1  LIG1       -0.0656
     24 C          -5.6490   -4.1337    0.0035 C.1     1  LIG1       -0.1138
     25 H          -6.2862   -4.9932    0.0045 H       1  LIG1        0.1232
     26 C          -5.7587   -0.3150    0.0014 C.ar    1  LIG1        0.0868
     27 C          -6.9765   -0.9191    0.0015 C.ar    1  LIG1        0.0679
     28 C          -7.9670    0.1151    0.0037 C.ar    1  LIG1        0.0727
     29 C          -7.3109    1.3057    0.0031 C.ar    1  LIG1        0.0826
     30 N          -5.9587    1.0470    0.0022 N.ar    1  LIG1       -0.3493
     31 H          -5.2408    1.7345    0.0016 H       1  LIG1        0.1661
     32 N          -7.1973   -2.2002    0.0012 N.pl3   1  LIG1       -0.3553
     33 H          -8.0585   -2.3899   -0.4703 H       1  LIG1        0.1424
     34 H          -6.4493   -2.6673   -0.4703 H       1  LIG1        0.1424
     35 C          -9.2564   -0.0501    0.0054 C.1     1  LIG1       -0.0656
     36 C         -10.4479   -0.2027    0.0070 C.1     1  LIG1       -0.1138
     37 H         -11.5092   -0.3387    0.0085 H       1  LIG1        0.1232
     38 C          -7.7701    2.5219    0.0044 C.ar    1  LIG1        0.0863
     39 C          -7.1139    3.7125    0.0049 C.ar    1  LIG1        0.0672
     40 C          -8.1043    4.7467    0.0074 C.ar    1  LIG1        0.0632
     41 C          -9.3222    4.1427    0.0066 C.ar    1  LIG1        0.0195
     42 N          -9.1222    2.7807    0.0052 N.ar    1  LIG1       -0.3569
     43 H          -9.8401    2.0932    0.0043 H       1  LIG1        0.1655
     44 H         -10.5174    4.6541    0.0080 H       1  LIG1        0.0820
     45 N          -5.8244    3.8776    0.0047 N.pl3   1  LIG1       -0.3553
     46 H          -5.3901    3.1101   -0.4668 H       1  LIG1        0.1424
     47 H          -5.5976    4.7298   -0.4668 H       1  LIG1        0.1424
     48 C          -7.8835    6.0278    0.0096 C.1     1  LIG1       -0.0663
     49 C          -7.6795    7.2116    0.0116 C.1     1  LIG1       -0.1138
     50 H          -7.4977    8.2660    0.0134 H       1  LIG1        0.1232
@<TRIPOS>BOND
     1    22    20    1
     2    21    20    1
     3    10     8    1
     4     9     8    1
     5    34    32    1
     6    33    32    1
     7    47    45    1
     8    46    45    1
     9    20    15    1
    10     2     8    1
    11     2     1   ar
    12     2     3   ar
    13    15    14   ar
    14    15    16   ar
    15     4    14    1
    16     4     5   ar
    17     4     3   ar
    18     6     5    1
    19    19    18    1
    20    14    18   ar
    21     5     1   ar
    22     1     7    1
    23     3    11    1
    24    18    17   ar
    25    17    16   ar
    26    17    26    1
    27    11    12    3
    28    16    23    1
    29    32    27    1
    30    26    27   ar
    31    26    30   ar
    32    27    28   ar
    33    31    30    1
    34    12    13    1
    35    30    29   ar
    36    23    24    3
    37    29    28   ar
    38    29    38    1
    39    24    25    1
    40    28    35    1
    41    43    42    1
    42    38    39   ar
    43    38    42   ar
    44    45    39    1
    45    39    40   ar
    46    42    41   ar
    47    35    36    3
    48    41    40   ar
    49    41    44    1
    50    36    37    1
    51    40    48    1
    52    48    49    3
    53    49    50    1
