@<TRIPOS>MOLECULE
mol_data/noopt/geoms/mol2/13he13he-4he13he.out
 52 55 0 0 0
SMALL
GASTEIGER

@<TRIPOS>ATOM
      1 C           1.1215   -0.3259    0.0002 C.ar    1  LIG1        0.0243
      2 C           0.7176    0.9721   -0.0005 C.ar    1  LIG1        0.0584
      3 C          -0.7144    0.9744    0.0003 C.ar    1  LIG1        0.0720
      4 C          -1.1226   -0.3223   -0.0003 C.ar    1  LIG1        0.0821
      5 N          -0.0018   -1.1217    0.0001 N.ar    1  LIG1       -0.3569
      6 H          -0.0034   -2.1157   -0.0003 H       1  LIG1        0.1655
      7 H           2.3167   -0.8373    0.0007 H       1  LIG1        0.0826
      8 N           1.4918    2.0164   -0.0003 N.pl3   1  LIG1       -0.3559
      9 H           2.3463    1.7980   -0.4717 H       1  LIG1        0.1424
     10 H           1.0345    2.7705   -0.4717 H       1  LIG1        0.1424
     11 C          -1.4853    2.0212    0.0010 C.1     1  LIG1       -0.0656
     12 C          -2.1976    2.9884    0.0016 C.1     1  LIG1       -0.1138
     13 H          -2.8321    3.8500    0.0022 H       1  LIG1        0.1232
     14 C          -2.3194   -0.8299   -0.0001 C.ar    1  LIG1        0.0867
     15 C          -2.7274   -2.1266   -0.0005 C.ar    1  LIG1        0.0679
     16 C          -4.1594   -2.1244    0.0011 C.ar    1  LIG1        0.0712
     17 C          -4.5635   -0.8264    0.0006 C.ar    1  LIG1        0.0662
     18 N          -3.4402   -0.0305    0.0003 N.ar    1  LIG1       -0.3505
     19 H          -3.4386    0.9635   -0.0001 H       1  LIG1        0.1660
     20 N          -1.9565   -3.1734   -0.0006 N.pl3   1  LIG1       -0.3553
     21 H          -2.4164   -3.9259   -0.4720 H       1  LIG1        0.1424
     22 H          -1.1015   -2.9576   -0.4721 H       1  LIG1        0.1424
     23 C          -4.9336   -3.1687    0.0023 C.1     1  LIG1       -0.0657
     24 C          -5.6490   -4.1337    0.0035 C.1     1  LIG1       -0.1138
     25 H          -6.2862   -4.9932    0.0045 H       1  LIG1        0.1232
     26 C          -5.9236    1.0852    0.0026 C.ar    1  LIG1        0.0345
     27 C          -7.2385    1.5895    0.0050 C.ar    1  LIG1       -0.0301
     28 C          -5.7587   -0.3150    0.0014 C.ar    1  LIG1        0.0214
     29 C          -8.3419    0.7391    0.0056 C.ar    1  LIG1        0.0173
     30 H          -7.3885    2.6668    0.0062 H       1  LIG1        0.0643
     31 C          -6.8598   -1.1644    0.0020 C.ar    1  LIG1       -0.0348
     32 C          -8.1582   -0.6442    0.0040 C.ar    1  LIG1        0.0346
     33 H          -6.7065   -2.2406    0.0011 H       1  LIG1        0.0637
     34 N          -4.9342    1.9285    0.0020 N.pl3   1  LIG1       -0.3574
     35 H          -4.1511    1.5232   -0.4696 H       1  LIG1        0.1423
     36 H          -5.2104    2.7660   -0.4697 H       1  LIG1        0.1423
     37 C          -9.1838   -1.4431    0.0046 C.1     1  LIG1       -0.0690
     38 C         -10.1314   -2.1813    0.0053 C.1     1  LIG1       -0.1139
     39 H         -10.9755   -2.8388    0.0058 H       1  LIG1        0.1232
     40 C          -9.5420    1.2389    0.0077 C.ar    1  LIG1        0.0699
     41 C          -9.9585    2.5329    0.0088 C.ar    1  LIG1        0.0658
     42 C         -11.3904    2.5213    0.0122 C.ar    1  LIG1        0.0632
     43 C         -11.7860    1.2207    0.0113 C.ar    1  LIG1        0.0195
     44 N         -10.6575    0.4322    0.0090 N.ar    1  LIG1       -0.3580
     45 H         -10.6495   -0.5617    0.0079 H       1  LIG1        0.1654
     46 H         -12.9778    0.7015    0.0134 H       1  LIG1        0.0820
     47 N          -9.1944    3.5847    0.0084 N.pl3   1  LIG1       -0.3554
     48 H          -8.3380    3.3744   -0.4631 H       1  LIG1        0.1424
     49 H          -9.6591    4.3341   -0.4632 H       1  LIG1        0.1424
     50 C         -12.1714    3.5606    0.0152 C.1     1  LIG1       -0.0663
     51 C         -12.8930    4.5208    0.0179 C.1     1  LIG1       -0.1138
     52 H         -13.5359    5.3762    0.0203 H       1  LIG1        0.1232
@<TRIPOS>BOND
     1    22    20    1
     2    21    20    1
     3    10     8    1
     4     9     8    1
     5    36    34    1
     6    35    34    1
     7    49    47    1
     8    48    47    1
     9    20    15    1
    10     2     8    1
    11     2     1   ar
    12     2     3   ar
    13    15    14   ar
    14    15    16   ar
    15     4    14    1
    16     4     5   ar
    17     4     3   ar
    18     6     5    1
    19    19    18    1
    20    14    18   ar
    21     5     1   ar
    22     1     7    1
    23     3    11    1
    24    18    17   ar
    25    17    16   ar
    26    17    28    1
    27    11    12    3
    28    16    23    1
    29    33    31    1
    30    28    31   ar
    31    28    26   ar
    32    12    13    1
    33    34    26    1
    34    31    32   ar
    35    23    24    3
    36    26    27   ar
    37    24    25    1
    38    32    37    1
    39    32    29   ar
    40    37    38    3
    41    27    29   ar
    42    27    30    1
    43    38    39    1
    44    29    40    1
    45    40    41   ar
    46    40    44   ar
    47    45    44    1
    48    47    41    1
    49    41    42   ar
    50    44    43   ar
    51    43    42   ar
    52    43    46    1
    53    42    50    1
    54    50    51    3
    55    51    52    1
