@<TRIPOS>MOLECULE
mol_data/noopt/geoms/mol2/13he13he13he-13he.out
 50 53 0 0 0
SMALL
GASTEIGER

@<TRIPOS>ATOM
      1 C           1.1215   -0.3259    0.0002 C.ar    1  LIG1        0.0243
      2 C           0.7176    0.9721   -0.0005 C.ar    1  LIG1        0.0584
      3 C          -0.7144    0.9744    0.0003 C.ar    1  LIG1        0.0720
      4 C          -1.1226   -0.3223   -0.0003 C.ar    1  LIG1        0.0821
      5 N          -0.0018   -1.1217    0.0001 N.ar    1  LIG1       -0.3569
      6 H          -0.0034   -2.1157   -0.0003 H       1  LIG1        0.1655
      7 H           2.3167   -0.8373    0.0007 H       1  LIG1        0.0826
      8 N           1.4918    2.0164   -0.0003 N.pl3   1  LIG1       -0.3559
      9 H           2.3463    1.7980   -0.4717 H       1  LIG1        0.1424
     10 H           1.0345    2.7705   -0.4717 H       1  LIG1        0.1424
     11 C          -1.4853    2.0212    0.0010 C.1     1  LIG1       -0.0656
     12 C          -2.1976    2.9884    0.0016 C.1     1  LIG1       -0.1138
     13 H          -2.8321    3.8500    0.0022 H       1  LIG1        0.1232
     14 C          -2.3194   -0.8299   -0.0001 C.ar    1  LIG1        0.0868
     15 C          -3.5353   -0.2219   -0.0003 C.ar    1  LIG1        0.0679
     16 C          -4.5290   -1.2530    0.0012 C.ar    1  LIG1        0.0727
     17 C          -3.8767   -2.4457    0.0005 C.ar    1  LIG1        0.0826
     18 N          -2.5238   -2.1913    0.0002 N.ar    1  LIG1       -0.3493
     19 H          -1.8081   -2.8811   -0.0004 H       1  LIG1        0.1661
     20 N          -3.7520    1.0599   -0.0003 N.pl3   1  LIG1       -0.3553
     21 H          -3.0025    1.5247   -0.4717 H       1  LIG1        0.1424
     22 H          -4.6126    1.2525   -0.4717 H       1  LIG1        0.1424
     23 C          -5.8179   -1.0837    0.0025 C.1     1  LIG1       -0.0656
     24 C          -7.0089   -0.9273    0.0037 C.1     1  LIG1       -0.1138
     25 H          -8.0698   -0.7879    0.0048 H       1  LIG1        0.1232
     26 C          -4.3398   -3.6604    0.0012 C.ar    1  LIG1        0.0868
     27 C          -3.6874   -4.8530    0.0012 C.ar    1  LIG1        0.0679
     28 C          -4.6811   -5.8841    0.0032 C.ar    1  LIG1        0.0727
     29 C          -5.8970   -5.2763    0.0027 C.ar    1  LIG1        0.0826
     30 N          -5.6927   -3.9149    0.0019 N.ar    1  LIG1       -0.3493
     31 H          -6.4084   -3.2251    0.0013 H       1  LIG1        0.1661
     32 N          -2.3984   -5.0223    0.0009 N.pl3   1  LIG1       -0.3553
     33 H          -2.1744   -5.8753   -0.4706 H       1  LIG1        0.1424
     34 H          -1.9617   -4.2562   -0.4706 H       1  LIG1        0.1424
     35 C          -4.4643   -7.1660    0.0049 C.1     1  LIG1       -0.0656
     36 C          -4.2641   -8.3503    0.0064 C.1     1  LIG1       -0.1138
     37 H          -4.0857   -9.4054    0.0077 H       1  LIG1        0.1232
     38 C          -7.0939   -5.7839    0.0038 C.ar    1  LIG1        0.0863
     39 C          -8.3097   -5.1759    0.0043 C.ar    1  LIG1        0.0672
     40 C          -9.3034   -6.2070    0.0067 C.ar    1  LIG1        0.0632
     41 C          -8.6511   -7.3997    0.0060 C.ar    1  LIG1        0.0195
     42 N          -7.2982   -7.1453    0.0047 N.ar    1  LIG1       -0.3569
     43 H          -6.5825   -7.8351    0.0038 H       1  LIG1        0.1655
     44 H          -9.1142   -8.6144    0.0073 H       1  LIG1        0.0820
     45 N          -8.5264   -3.8941    0.0041 N.pl3   1  LIG1       -0.3553
     46 H          -7.7769   -3.4294   -0.4674 H       1  LIG1        0.1424
     47 H          -9.3870   -3.7016   -0.4674 H       1  LIG1        0.1424
     48 C         -10.5924   -6.0377    0.0089 C.1     1  LIG1       -0.0663
     49 C         -11.7833   -5.8813    0.0108 C.1     1  LIG1       -0.1138
     50 H         -12.8442   -5.7420    0.0126 H       1  LIG1        0.1232
@<TRIPOS>BOND
     1    22    20    1
     2    10     8    1
     3    21    20    1
     4     9     8    1
     5    34    32    1
     6    33    32    1
     7    47    45    1
     8    46    45    1
     9     2     8    1
    10     2     1   ar
    11     2     3   ar
    12    19    18    1
    13    15    20    1
    14    15    14   ar
    15    15    16   ar
    16     6     5    1
    17     4    14    1
    18     4     5   ar
    19     4     3   ar
    20    14    18   ar
    21     5     1   ar
    22    18    17   ar
    23     1     7    1
    24     3    11    1
    25    17    16   ar
    26    17    26    1
    27    32    27    1
    28    11    12    3
    29    27    26   ar
    30    27    28   ar
    31    16    23    1
    32    26    30   ar
    33    31    30    1
    34    12    13    1
    35    30    29   ar
    36    23    24    3
    37    29    28   ar
    38    29    38    1
    39    28    35    1
    40    24    25    1
    41    43    42    1
    42    38    39   ar
    43    38    42   ar
    44    45    39    1
    45    39    40   ar
    46    42    41   ar
    47    35    36    3
    48    41    40   ar
    49    41    44    1
    50    36    37    1
    51    40    48    1
    52    48    49    3
    53    49    50    1
