@<TRIPOS>MOLECULE
mol_data/noopt/geoms/mol2/13he12hl-4af-12da.out
 46 49 0 0 0
SMALL
GASTEIGER

@<TRIPOS>ATOM
      1 C           1.1215   -0.3259    0.0002 C.ar    1  LIG1        0.0243
      2 C           0.7176    0.9721   -0.0005 C.ar    1  LIG1        0.0584
      3 C          -0.7144    0.9744    0.0003 C.ar    1  LIG1        0.0736
      4 C          -1.1226   -0.3223   -0.0003 C.ar    1  LIG1        0.1015
      5 N          -0.0018   -1.1217    0.0001 N.ar    1  LIG1       -0.3556
      6 H          -0.0034   -2.1157   -0.0003 H       1  LIG1        0.1655
      7 H           2.3167   -0.8373    0.0007 H       1  LIG1        0.0826
      8 N           1.4918    2.0164   -0.0003 N.pl3   1  LIG1       -0.3559
      9 H           2.3463    1.7980   -0.4717 H       1  LIG1        0.1424
     10 H           1.0345    2.7705   -0.4717 H       1  LIG1        0.1424
     11 C          -1.4853    2.0212    0.0010 C.1     1  LIG1       -0.0656
     12 C          -2.1976    2.9884    0.0016 C.1     1  LIG1       -0.1138
     13 H          -2.8321    3.8500    0.0022 H       1  LIG1        0.1232
     14 C          -2.3194   -0.8299   -0.0001 C.ar    1  LIG1        0.1773
     15 C          -3.6025   -0.3232    0.0001 C.ar    1  LIG1        0.1155
     16 C          -4.4979   -1.4613    0.0002 C.ar    1  LIG1        0.1870
     17 C          -3.7022   -2.5884    0.0001 C.ar    1  LIG1        0.1792
     18 O          -2.3550   -2.2250   -0.0002 O.2     1  LIG1       -0.4476
     19 N          -3.9649    0.9253    0.0001 N.pl3   1  LIG1       -0.3521
     20 H          -3.2737    1.4730   -0.4713 H       1  LIG1        0.1425
     21 H          -4.8419    1.0178   -0.4713 H       1  LIG1        0.1425
     22 O          -5.7966   -1.4035    0.0004 O.3     1  LIG1       -0.4896
     23 C          -6.2135   -0.0356    0.0004 C.3     1  LIG1        0.0791
     24 H          -7.2825    0.0115    0.0004 H       1  LIG1        0.0660
     25 H          -5.8350    0.4526    0.8741 H       1  LIG1        0.0660
     26 H          -5.8350    0.4526   -0.8732 H       1  LIG1        0.0660
     27 C          -5.2332   -4.3659    0.0224 C.ar    1  LIG1       -0.0501
     28 C          -5.4087   -5.7632    0.0231 C.ar    1  LIG1       -0.0469
     29 C          -3.9132   -3.8711    0.0002 C.ar    1  LIG1        0.0245
     30 C          -4.3195   -6.6314    0.0020 C.ar    1  LIG1        0.0599
     31 H          -6.4188   -6.1663    0.0402 H       1  LIG1        0.0626
     32 C          -2.8254   -4.7374   -0.0208 C.ar    1  LIG1       -0.0087
     33 C          -3.0203   -6.1225   -0.0201 C.ar    1  LIG1        0.1282
     34 H          -1.8172   -4.3314   -0.0376 H       1  LIG1        0.0661
     35 H          -6.2883   -3.6067    0.0423 H       1  LIG1        0.0625
     36 O          -1.9997   -6.9275   -0.0397 O.3     1  LIG1       -0.5060
     37 H          -1.1877   -6.4153   -0.0445 H       1  LIG1        0.2922
     38 C          -4.5180   -7.9162    0.0032 C.ar    1  LIG1        0.1556
     39 C          -5.6243   -8.7402    0.0041 C.ar    1  LIG1        0.0975
     40 C          -5.1281  -10.1007    0.0053 C.ar    1  LIG1       -0.0058
     41 C          -3.7509  -10.0176    0.0049 C.ar    1  LIG1        0.0939
     42 O          -3.3506   -8.6809    0.0035 O.2     1  LIG1       -0.4615
     43 H          -2.7714  -10.8723    0.0055 H       1  LIG1        0.1030
     44 N          -7.9810   -8.0832    0.0040 N.1     1  LIG1       -0.1907
     45 C          -6.8765   -8.3911    0.0041 C.1     1  LIG1        0.1030
     46 H          -5.8610  -11.1744    0.0063 H       1  LIG1        0.0662
@<TRIPOS>BOND
     1    26    23    1
     2    10     8    1
     3     9     8    1
     4    21    19    1
     5    20    19    1
     6    37    36    1
     7    36    33    1
     8    34    32    1
     9    32    33   ar
    10    32    29   ar
    11    33    30   ar
    12     2     8    1
    13     2     1   ar
    14     2     3   ar
    15     6     5    1
    16     4    14    1
    17     4     5   ar
    18     4     3   ar
    19    18    14   ar
    20    18    17   ar
    21    14    15   ar
    22    15    19    1
    23    15    16   ar
    24     5     1   ar
    25    17    29    1
    26    17    16   ar
    27     1     7    1
    28    29    27   ar
    29    16    22    1
    30     3    11    1
    31    24    23    1
    32    23    22    1
    33    23    25    1
    34    11    12    3
    35    12    13    1
    36    30    38    1
    37    30    28   ar
    38    38    42   ar
    39    38    39   ar
    40    42    41   ar
    41    44    45    3
    42    45    39    1
    43    39    40   ar
    44    41    40   ar
    45    41    43    1
    46    40    46    1
    47    27    28   ar
    48    27    35    1
    49    28    31    1
