@<TRIPOS>MOLECULE
mol_data/noopt/geoms/mol2/13he4ii(340)6hh(60)6ha(320).out
 54 57 0 0 0
SMALL
GASTEIGER

@<TRIPOS>ATOM
      1 C           1.1215   -0.3259    0.0002 C.ar    1  LIG1        0.0242
      2 C           0.7176    0.9721   -0.0005 C.ar    1  LIG1        0.0583
      3 C          -0.7144    0.9744    0.0003 C.ar    1  LIG1        0.0705
      4 C          -1.1226   -0.3223   -0.0003 C.ar    1  LIG1        0.0641
      5 N          -0.0018   -1.1217    0.0001 N.ar    1  LIG1       -0.3580
      6 H          -0.0034   -2.1157   -0.0003 H       1  LIG1        0.1654
      7 H           2.3167   -0.8373    0.0007 H       1  LIG1        0.0826
      8 N           1.4918    2.0164   -0.0003 N.pl3   1  LIG1       -0.3559
      9 H           2.3463    1.7980   -0.4717 H       1  LIG1        0.1424
     10 H           1.0345    2.7705   -0.4717 H       1  LIG1        0.1424
     11 C          -1.4853    2.0212    0.0010 C.1     1  LIG1       -0.0657
     12 C          -2.1976    2.9884    0.0016 C.1     1  LIG1       -0.1138
     13 H          -2.8321    3.8500    0.0022 H       1  LIG1        0.1232
     14 C          -3.4147   -0.0464   -0.4174 C.ar    1  LIG1       -0.0407
     15 C          -4.6908   -0.6418   -0.3974 C.ar    1  LIG1       -0.0501
     16 C          -2.3194   -0.8299   -0.0001 C.ar    1  LIG1        0.0027
     17 C          -4.8706   -1.9591    0.0187 C.ar    1  LIG1       -0.0114
     18 H          -5.5499   -0.0551   -0.7151 H       1  LIG1        0.0627
     19 C          -2.4983   -2.1450    0.4154 C.ar    1  LIG1       -0.0488
     20 C          -3.7739   -2.7187    0.4277 C.ar    1  LIG1       -0.0420
     21 H          -1.6377   -2.7285    0.7325 H       1  LIG1        0.0627
     22 C          -3.3101    1.1868   -0.8161 C.3     1  LIG1       -0.0391
     23 H          -4.1388    1.7531   -0.4454 H       1  LIG1        0.0278
     24 H          -3.3076    1.2168   -1.8857 H       1  LIG1        0.0278
     25 H          -2.3977    1.6053   -0.4454 H       1  LIG1        0.0278
     26 C          -3.9351   -3.9488    0.8173 C.3     1  LIG1       -0.0391
     27 H          -3.0934   -4.2499    1.4055 H       1  LIG1        0.0278
     28 H          -4.0185   -4.5859   -0.0383 H       1  LIG1        0.0278
     29 H          -4.8259   -4.0228    1.4054 H       1  LIG1        0.0278
     30 C          -6.4772   -3.3196   -1.0234 C.ar    1  LIG1        0.1247
     31 C          -6.0629   -2.4772    0.0244 C.ar    1  LIG1        0.0237
     32 C          -6.9586   -2.2144    1.0626 C.ar    1  LIG1       -0.0280
     33 C          -8.2266   -2.7966    1.0195 C.ar    1  LIG1        0.0517
     34 C          -8.5484   -3.6252   -0.0711 C.ar    1  LIG1        0.0969
     35 N          -7.6965   -3.8895   -1.0809 N.ar    1  LIG1       -0.2299
     36 H          -6.6708   -1.5603    1.8977 H       1  LIG1        0.0644
     37 N          -5.6790   -3.5940   -2.0122 N.pl3   1  LIG1       -0.3426
     38 H          -6.0788   -4.3199   -2.5717 H       1  LIG1        0.1437
     39 H          -5.5480   -2.7757   -2.5718 H       1  LIG1        0.1437
     40 N          -9.0965   -2.5829    1.9616 N.pl3   1  LIG1       -0.3563
     41 H          -9.4566   -1.6537    1.8783 H       1  LIG1        0.1424
     42 H          -9.8461   -3.2395    1.8783 H       1  LIG1        0.1424
     43 C          -9.9959   -5.3585    0.5760 C.ar    1  LIG1        0.1254
     44 C          -9.7162   -4.1900   -0.1559 C.ar    1  LIG1        0.0417
     45 C         -10.7180   -3.6569   -0.9691 C.ar    1  LIG1       -0.0478
     46 C         -11.9541   -4.3030   -1.0236 C.ar    1  LIG1       -0.0428
     47 C         -12.1380   -5.4668   -0.2546 C.ar    1  LIG1        0.0297
     48 N         -11.1827   -5.9947    0.5353 N.ar    1  LIG1       -0.2401
     49 H         -10.5360   -2.7457   -1.5565 H       1  LIG1        0.0626
     50 H         -13.2711   -6.1038   -0.2719 H       1  LIG1        0.0830
     51 N          -9.0956   -5.8925    1.3470 N.pl3   1  LIG1       -0.3426
     52 H          -9.0409   -6.8743    1.1650 H       1  LIG1        0.1437
     53 H          -8.2078   -5.4698    1.1650 H       1  LIG1        0.1437
     54 H         -12.9190   -3.8465   -1.7656 H       1  LIG1        0.0633
@<TRIPOS>BOND
     1    39    37    1
     2    38    37    1
     3    37    30    1
     4    24    22    1
     5    54    46    1
     6    49    45    1
     7    35    30   ar
     8    35    34   ar
     9    46    45   ar
    10    46    47   ar
    11    30    31   ar
    12    45    44   ar
    13    22    25    1
    14    22    23    1
    15    22    14    1
    16    18    15    1
    17    10     8    1
    18     9     8    1
    19    14    15   ar
    20    14    16   ar
    21    15    17   ar
    22    50    47    1
    23    47    48   ar
    24    44    34    1
    25    44    43   ar
    26    34    33   ar
    27    28    26    1
    28     2     8    1
    29     2     1   ar
    30     2     3   ar
    31     4    16    1
    32     4     5   ar
    33     4     3   ar
    34     6     5    1
    35    16    19   ar
    36     5     1   ar
    37     1     7    1
    38     3    11    1
    39    11    12    3
    40    12    13    1
    41    17    31    1
    42    17    20   ar
    43    31    32   ar
    44    19    20   ar
    45    19    21    1
    46    20    26    1
    47    48    43   ar
    48    43    51    1
    49    26    29    1
    50    26    27    1
    51    33    32   ar
    52    33    40    1
    53    32    36    1
    54    53    51    1
    55    52    51    1
    56    42    40    1
    57    41    40    1
