@<TRIPOS>MOLECULE
mol_data/noopt/geoms/mol2/13he12eh6ll-4ei-.out
 57 60 0 0 0
SMALL
GASTEIGER

@<TRIPOS>ATOM
      1 C           1.1215   -0.3259    0.0002 C.ar    1  LIG1        0.0243
      2 C           0.7176    0.9721   -0.0005 C.ar    1  LIG1        0.0584
      3 C          -0.7144    0.9744    0.0003 C.ar    1  LIG1        0.0736
      4 C          -1.1226   -0.3223   -0.0003 C.ar    1  LIG1        0.1008
      5 N          -0.0018   -1.1217    0.0001 N.ar    1  LIG1       -0.3556
      6 H          -0.0034   -2.1157   -0.0003 H       1  LIG1        0.1655
      7 H           2.3167   -0.8373    0.0007 H       1  LIG1        0.0826
      8 N           1.4918    2.0164   -0.0003 N.pl3   1  LIG1       -0.3559
      9 H           2.3463    1.7980   -0.4717 H       1  LIG1        0.1424
     10 H           1.0345    2.7705   -0.4717 H       1  LIG1        0.1424
     11 C          -1.4853    2.0212    0.0010 C.1     1  LIG1       -0.0656
     12 C          -2.1976    2.9884    0.0016 C.1     1  LIG1       -0.1138
     13 H          -2.8321    3.8500    0.0022 H       1  LIG1        0.1232
     14 C          -2.3194   -0.8299   -0.0001 C.ar    1  LIG1        0.1702
     15 C          -3.6024   -0.3233    0.0148 C.ar    1  LIG1        0.0931
     16 C          -4.4979   -1.4613    0.0044 C.ar    1  LIG1        0.0874
     17 C          -3.7022   -2.5883   -0.0164 C.ar    1  LIG1        0.1627
     18 O          -2.3551   -2.2249   -0.0196 O.2     1  LIG1       -0.4500
     19 C          -3.9648    0.9250    0.0347 C.1     1  LIG1       -0.0639
     20 C          -4.2997    2.0784    0.0530 C.1     1  LIG1       -0.1137
     21 H          -4.5979    3.1059    0.0693 H       1  LIG1        0.1232
     22 N          -5.7966   -1.4036    0.0131 N.pl3   1  LIG1       -0.3541
     23 H          -6.0965   -0.5730   -0.4560 H       1  LIG1        0.1425
     24 H          -6.1690   -2.2043   -0.4561 H       1  LIG1        0.1425
     25 C          -2.8310   -4.7694   -0.0632 C.ar    1  LIG1        0.2262
     26 C          -3.9133   -3.8710   -0.0331 C.ar    1  LIG1        0.0841
     27 C          -5.2096   -4.3889   -0.0213 C.ar    1  LIG1       -0.0020
     28 C          -5.3799   -5.7743   -0.0401 C.ar    1  LIG1        0.1469
     29 C          -4.2349   -6.5913   -0.0702 C.ar    1  LIG1        0.1175
     30 N          -2.9771   -6.1085   -0.0816 N.ar    1  LIG1       -0.2086
     31 H          -6.0800   -3.7179    0.0011 H       1  LIG1        0.0663
     32 O          -1.6057   -4.3353   -0.0751 O.3     1  LIG1       -0.4792
     33 C          -0.7056   -5.4465   -0.0795 C.3     1  LIG1        0.0804
     34 H           0.3027   -5.0888   -0.0894 H       1  LIG1        0.0660
     35 H          -0.8655   -6.0385    0.7975 H       1  LIG1        0.0660
     36 H          -0.8807   -6.0439   -0.9497 H       1  LIG1        0.0660
     37 O          -6.5663   -6.3058   -0.0304 O.3     1  LIG1       -0.4929
     38 C          -7.5530   -5.2707   -0.0270 C.3     1  LIG1        0.0789
     39 H          -8.5293   -5.7085   -0.0192 H       1  LIG1        0.0660
     40 H          -7.4282   -4.6619    0.8441 H       1  LIG1        0.0660
     41 H          -7.4398   -4.6671   -0.9031 H       1  LIG1        0.0660
     42 C          -5.6179   -8.4863   -0.0762 C.ar    1  LIG1        0.0340
     43 C          -5.6803   -9.8931   -0.0954 C.ar    1  LIG1       -0.0454
     44 C          -4.3419   -7.8867   -0.0884 C.ar    1  LIG1        0.0197
     45 C          -4.5247  -10.6705   -0.1260 C.ar    1  LIG1       -0.0576
     46 H          -6.6548  -10.3764   -0.0862 H       1  LIG1        0.0630
     47 C          -3.1880   -8.6623   -0.1190 C.ar    1  LIG1       -0.0484
     48 C          -3.2707  -10.0584   -0.1381 C.ar    1  LIG1       -0.0498
     49 H          -2.2157   -8.1762   -0.1278 H       1  LIG1        0.0627
     50 H          -4.6192  -11.9669   -0.1432 H       1  LIG1        0.0621
     51 C          -6.7307   -7.8149   -0.0481 C.1     1  LIG1       -0.0690
     52 C          -7.7590   -7.1945   -0.0221 C.1     1  LIG1       -0.1139
     53 H          -8.6749   -6.6419    0.0010 H       1  LIG1        0.1232
     54 C          -2.1883  -10.7784   -0.1665 C.3     1  LIG1       -0.0397
     55 H          -1.3984  -10.2546    0.3300 H       1  LIG1        0.0278
     56 H          -1.9097  -10.9637   -1.1829 H       1  LIG1        0.0278
     57 H          -2.3662  -11.7095    0.3299 H       1  LIG1        0.0278
@<TRIPOS>BOND
     1    56    54    1
     2    36    33    1
     3    41    38    1
     4    10     8    1
     5     9     8    1
     6    24    22    1
     7    23    22    1
     8    54    48    1
     9    54    57    1
    10    54    55    1
    11    50    45    1
    12    48    45   ar
    13    48    47   ar
    14    49    47    1
    15    45    43   ar
    16    47    44   ar
    17    43    46    1
    18    43    42   ar
    19    34    33    1
    20    44    42   ar
    21    44    29    1
    22    30    29   ar
    23    30    25   ar
    24    33    32    1
    25    33    35    1
    26    42    51    1
    27    32    25    1
    28    29    28   ar
    29    25    26   ar
    30    51    52    3
    31    28    37    1
    32    28    27   ar
    33    26    27   ar
    34    26    17    1
    35    37    38    1
    36    38    39    1
    37    38    40    1
    38    52    53    1
    39    27    31    1
    40    18    17   ar
    41    18    14   ar
    42    17    16   ar
    43     2     8    1
    44     2     1   ar
    45     2     3   ar
    46     6     5    1
    47     4    14    1
    48     4     5   ar
    49     4     3   ar
    50    14    15   ar
    51     5     1   ar
    52     1     7    1
    53     3    11    1
    54    11    12    3
    55    12    13    1
    56    16    22    1
    57    16    15   ar
    58    15    19    1
    59    19    20    3
    60    20    21    1
