@<TRIPOS>MOLECULE
mol_data/noopt/geoms/mol2/13he13da(110)12da(210)4aa(200).out
 41 44 0 0 0
SMALL
GASTEIGER

@<TRIPOS>ATOM
      1 C           1.1215   -0.3259    0.0002 C.ar    1  LIG1        0.0243
      2 C           0.7176    0.9721   -0.0005 C.ar    1  LIG1        0.0584
      3 C          -0.7144    0.9744    0.0003 C.ar    1  LIG1        0.0720
      4 C          -1.1226   -0.3223   -0.0003 C.ar    1  LIG1        0.0816
      5 N          -0.0018   -1.1217    0.0001 N.ar    1  LIG1       -0.3569
      6 H          -0.0034   -2.1157   -0.0003 H       1  LIG1        0.1655
      7 H           2.3167   -0.8373    0.0007 H       1  LIG1        0.0826
      8 N           1.4918    2.0164   -0.0003 N.pl3   1  LIG1       -0.3559
      9 H           2.3463    1.7980   -0.4717 H       1  LIG1        0.1424
     10 H           1.0345    2.7705   -0.4717 H       1  LIG1        0.1424
     11 C          -1.4853    2.0212    0.0010 C.1     1  LIG1       -0.0656
     12 C          -2.1976    2.9884    0.0016 C.1     1  LIG1       -0.1138
     13 H          -2.8321    3.8500    0.0022 H       1  LIG1        0.1232
     14 C          -2.3194   -0.8299   -0.0001 C.ar    1  LIG1        0.0822
     15 C          -2.9828   -1.5241    0.9622 C.ar    1  LIG1        0.0791
     16 C          -4.2759   -1.8497    0.4400 C.ar    1  LIG1       -0.0153
     17 C          -4.3464   -1.3386   -0.8178 C.ar    1  LIG1        0.0851
     18 N          -3.1506   -0.7139   -1.0914 N.ar    1  LIG1       -0.3495
     19 H          -2.9235   -0.2518   -1.9416 H       1  LIG1        0.1661
     20 N          -2.1192   -2.1086    3.1754 N.1     1  LIG1       -0.1908
     21 C          -2.5240   -1.8347    2.1382 C.1     1  LIG1        0.1014
     22 H          -5.2123   -2.5113    1.0527 H       1  LIG1        0.0653
     23 C          -5.3101   -1.3735   -1.6896 C.ar    1  LIG1        0.1691
     24 C          -5.7152   -2.2520   -2.6730 C.ar    1  LIG1        0.0994
     25 C          -6.8893   -1.6711   -3.2902 C.ar    1  LIG1        0.0023
     26 C          -7.1239   -0.4755   -2.6426 C.ar    1  LIG1        0.1370
     27 O          -6.1635   -0.2699   -1.6515 O.2     1  LIG1       -0.4520
     28 N          -4.6874   -4.3841   -3.2922 N.1     1  LIG1       -0.1907
     29 C          -5.1691   -3.3849   -3.0020 C.1     1  LIG1        0.1030
     30 H          -7.5714   -2.1960   -4.2644 H       1  LIG1        0.0668
     31 C          -9.3032    0.1808   -3.2118 C.ar    1  LIG1       -0.0511
     32 C         -10.2226    1.2437   -3.3015 C.ar    1  LIG1       -0.0611
     33 C          -8.0068    0.4735   -2.7410 C.ar    1  LIG1        0.0173
     34 C          -9.8693    2.5414   -2.9385 C.ar    1  LIG1       -0.0617
     35 H         -11.2283    1.0400   -3.6624 H       1  LIG1        0.0618
     36 C          -7.6536    1.7688   -2.3785 C.ar    1  LIG1       -0.0511
     37 C          -8.5813    2.8112   -2.4744 C.ar    1  LIG1       -0.0611
     38 H          -6.6477    1.9691   -2.0184 H       1  LIG1        0.0625
     39 H         -10.7434    3.4990   -3.0339 H       1  LIG1        0.0618
     40 H          -9.6914   -1.0086   -3.5649 H       1  LIG1        0.0625
     41 H          -8.2453    4.0201   -2.1342 H       1  LIG1        0.0618
@<TRIPOS>BOND
     1    30    25    1
     2    35    32    1
     3    40    31    1
     4    32    31   ar
     5    32    34   ar
     6    28    29    3
     7    25    24   ar
     8    25    26   ar
     9    31    33   ar
    10    39    34    1
    11    29    24    1
    12    34    37   ar
    13    33    26    1
    14    33    36   ar
    15    24    23   ar
    16    26    27   ar
    17    37    36   ar
    18    37    41    1
    19    36    38    1
    20    19    18    1
    21    23    27   ar
    22    23    17    1
    23    18    17   ar
    24    18    14   ar
    25    17    16   ar
    26    10     8    1
    27     9     8    1
    28     2     8    1
    29     2     1   ar
    30     2     3   ar
    31     4    14    1
    32     4     5   ar
    33     4     3   ar
    34     6     5    1
    35    14    15   ar
    36     5     1   ar
    37     1     7    1
    38     3    11    1
    39    11    12    3
    40    12    13    1
    41    16    15   ar
    42    16    22    1
    43    15    21    1
    44    21    20    3
