@<TRIPOS>MOLECULE
mol_data/noopt/geoms/mol2/13he12ii-4fl-12df-.out
 51 51 0 0 0
SMALL
GASTEIGER

@<TRIPOS>ATOM
      1 C           1.1215   -0.3259    0.0002 C.ar    1  LIG1        0.0243
      2 C           0.7176    0.9721   -0.0005 C.ar    1  LIG1        0.0584
      3 C          -0.7144    0.9744    0.0003 C.ar    1  LIG1        0.0735
      4 C          -1.1226   -0.3223   -0.0003 C.ar    1  LIG1        0.0998
      5 N          -0.0018   -1.1217    0.0001 N.ar    1  LIG1       -0.3556
      6 H          -0.0034   -2.1157   -0.0003 H       1  LIG1        0.1655
      7 H           2.3167   -0.8373    0.0007 H       1  LIG1        0.0826
      8 N           1.4918    2.0164   -0.0003 N.pl3   1  LIG1       -0.3559
      9 H           2.3463    1.7980   -0.4717 H       1  LIG1        0.1424
     10 H           1.0345    2.7705   -0.4717 H       1  LIG1        0.1424
     11 C          -1.4853    2.0212    0.0010 C.1     1  LIG1       -0.0656
     12 C          -2.1976    2.9884    0.0016 C.1     1  LIG1       -0.1138
     13 H          -2.8321    3.8500    0.0022 H       1  LIG1        0.1232
     14 C          -2.3194   -0.8299   -0.0001 C.ar    1  LIG1        0.1561
     15 C          -3.6025   -0.3232    0.0001 C.ar    1  LIG1        0.0003
     16 C          -4.4979   -1.4613    0.0002 C.ar    1  LIG1       -0.0010
     17 C          -3.7022   -2.5884    0.0001 C.ar    1  LIG1        0.1425
     18 O          -2.3550   -2.2250   -0.0002 O.2     1  LIG1       -0.4527
     19 C          -3.9650    0.9255    0.0001 C.3     1  LIG1       -0.0358
     20 H          -4.9034    1.0245    0.5046 H       1  LIG1        0.0279
     21 H          -4.0645    1.2681   -1.0087 H       1  LIG1        0.0279
     22 H          -3.2254    1.5116    0.5045 H       1  LIG1        0.0279
     23 C          -5.7969   -1.4035    0.0004 C.3     1  LIG1       -0.0358
     24 H          -6.1920   -2.2604    0.5049 H       1  LIG1        0.0279
     25 H          -6.1534   -1.3877   -1.0084 H       1  LIG1        0.0279
     26 H          -6.1143   -0.5148    0.5048 H       1  LIG1        0.0279
     27 C          -5.2332   -4.3659    0.0224 C.ar    1  LIG1        0.1283
     28 C          -5.4087   -5.7632    0.0231 C.ar    1  LIG1       -0.0080
     29 C          -3.9132   -3.8711    0.0002 C.ar    1  LIG1        0.0626
     30 C          -4.3195   -6.6314    0.0020 C.ar    1  LIG1        0.0342
     31 H          -6.4188   -6.1663    0.0402 H       1  LIG1        0.0661
     32 C          -2.8254   -4.7374   -0.0208 C.ar    1  LIG1       -0.0001
     33 C          -3.0203   -6.1225   -0.0201 C.ar    1  LIG1        0.1876
     34 H          -1.8172   -4.3314   -0.0376 H       1  LIG1        0.0664
     35 O          -6.2884   -3.6067    0.0423 O.3     1  LIG1       -0.5060
     36 H          -7.0769   -4.1542    0.0472 H       1  LIG1        0.2922
     37 O          -1.9997   -6.9275   -0.0397 O.3     1  LIG1       -0.2872
     38 C          -2.4597   -8.2815   -0.0469 C.3     2  LIG2       -0.0309
     39 H          -1.6194   -8.9436   -0.0632 H       1  LIG1        0.0309
     40 H          -3.0416   -8.4652    0.8321 H       0  HOH0        0.2052
     41 H          -3.0624   -8.4488   -0.9150 H       0  HOH0        0.2052
     42 C          -4.5180   -7.9162    0.0032 C.2     1  LIG1        0.0160
     43 C          -5.6242   -8.7403    0.0189 C.2     1  LIG1        0.1015
     44 C          -5.1281  -10.1007    0.0094 C.2     1  LIG1        0.1349
     45 C          -3.7510  -10.0176   -0.0116 C.2     1  LIG1       -0.0154
     46 O          -3.3508   -8.6809   -0.0159 O.3     3  HOH3       -0.4105
     47 H          -2.7717  -10.8723   -0.0278 H       1  LIG1        0.0655
     48 N          -7.9806   -8.0832    0.0560 N.1     1  LIG1       -0.1907
     49 C          -6.8763   -8.3911    0.0386 C.1     1  LIG1        0.1035
     50 O          -5.8609  -11.1745    0.0190 O.2     1  LIG1       -0.5055
     51 H          -5.2941  -11.9492    0.0214 H       1  LIG1        0.2922
@<TRIPOS>BOND
     1    21    19    1
     2    25    23    1
     3    41    46    1
     4    10     8    1
     5     9     8    1
     6    39    38    1
     7    37    33    1
     8    34    32    1
     9    47    45    1
    10    32    33   ar
    11    32    29   ar
    12    33    30   ar
    13    46    40    1
    14    45    44    2
    15     2     8    1
    16     2     1   ar
    17     2     3   ar
    18     6     5    1
    19     4    14    1
    20     4     5   ar
    21     4     3   ar
    22    18    14   ar
    23    18    17   ar
    24    14    15   ar
    25    15    19    1
    26    15    16   ar
    27     5     1   ar
    28    17    29    1
    29    17    16   ar
    30    19    22    1
    31    19    20    1
    32     1     7    1
    33    29    27   ar
    34    16    23    1
    35     3    11    1
    36    23    26    1
    37    23    24    1
    38    11    12    3
    39    12    13    1
    40    30    42    1
    41    30    28   ar
    42    42    43    2
    43    44    43    1
    44    44    50    1
    45    43    49    1
    46    50    51    1
    47    27    28   ar
    48    27    35    1
    49    28    31    1
    50    49    48    3
    51    35    36    1
