@<TRIPOS>MOLECULE
mol_data/noopt/geoms/mol2/13he6ai12lh-6fe.out
 51 51 0 0 0
SMALL
GASTEIGER

@<TRIPOS>ATOM
      1 C           1.1215   -0.3259    0.0002 C.ar    1  LIG1        0.0242
      2 C           0.7176    0.9721   -0.0005 C.ar    1  LIG1        0.0583
      3 C          -0.7144    0.9744    0.0003 C.ar    1  LIG1        0.0705
      4 C          -1.1226   -0.3223   -0.0003 C.ar    1  LIG1        0.0654
      5 N          -0.0018   -1.1217    0.0001 N.ar    1  LIG1       -0.3580
      6 H          -0.0034   -2.1157   -0.0003 H       1  LIG1        0.1654
      7 H           2.3167   -0.8373    0.0007 H       1  LIG1        0.0826
      8 N           1.4918    2.0164   -0.0003 N.pl3   1  LIG1       -0.3559
      9 H           2.3463    1.7980   -0.4717 H       1  LIG1        0.1424
     10 H           1.0345    2.7705   -0.4717 H       1  LIG1        0.1424
     11 C          -1.4853    2.0212    0.0010 C.1     1  LIG1       -0.0657
     12 C          -2.1976    2.9884    0.0016 C.1     1  LIG1       -0.1138
     13 H          -2.8321    3.8500    0.0022 H       1  LIG1        0.1232
     14 C          -2.5001   -2.2252    0.0002 C.ar    1  LIG1        0.0374
     15 C          -2.3194   -0.8299   -0.0001 C.ar    1  LIG1        0.0183
     16 C          -3.4502   -0.0112    0.0002 C.ar    1  LIG1       -0.0413
     17 C          -4.7120   -0.6082    0.0005 C.ar    1  LIG1        0.0109
     18 C          -4.7903   -2.0130    0.0006 C.ar    1  LIG1        0.0830
     19 N          -3.7098   -2.8179    0.0005 N.ar    1  LIG1       -0.2536
     20 H          -3.3485    1.0833   -0.0010 H       1  LIG1        0.0631
     21 H          -1.4781   -3.0286    0.0000 H       1  LIG1        0.0836
     22 C          -5.7957    0.1105    0.0006 C.3     1  LIG1       -0.0619
     23 H          -6.5758   -0.4205    0.5050 H       1  LIG1        0.2923
     24 H          -6.0931    0.3076   -1.0082 H       2  UNK2        0.0000
     25 H          -5.6100    1.0357    0.5050 H       1  LIG1        0.0233
     26 C          -5.9423   -2.6153    0.0010 C.2     1  LIG1        0.0570
     27 C          -7.2620   -2.2136    0.0013 C.2     1  LIG1        0.1511
     28 C          -8.0629   -3.4201    0.0016 C.2     1  LIG1        0.1153
     29 C          -7.1789   -4.4795    0.0015 C.2     1  LIG1        0.2152
     30 O          -5.8654   -4.0088    0.0009 O.2     1  LIG1       -0.2850
     31 O          -7.7239   -0.9984    0.0013 O.2     1  LIG1       -0.5041
     32 C          -6.6334   -0.0734    0.0013 C.3     1  LIG1       -0.0382
     33 H          -7.0139    0.9267    0.0011 H       1  LIG1        0.0303
     34 H          -6.0351   -0.2272    0.8750 H       1  LIG1        0.0233
     35 H          -6.0350   -0.2274   -0.8723 H       1  LIG1        0.0233
     36 N          -9.3620   -3.4671    0.0020 N.pl3   1  LIG1       -0.3521
     37 H          -9.7248   -2.6632   -0.4693 H       1  LIG1        0.1425
     38 H          -9.6657   -4.2951   -0.4693 H       1  LIG1        0.1425
     39 C          -6.1346   -6.5837    0.0019 C.ar    1  LIG1        0.2235
     40 C          -7.2859   -5.7751    0.0017 C.ar    1  LIG1        0.0861
     41 C          -8.5365   -6.3957    0.0019 C.ar    1  LIG1       -0.0289
     42 C          -8.5946   -7.7904    0.0023 C.ar    1  LIG1        0.0437
     43 C          -7.3872   -8.5127    0.0023 C.ar    1  LIG1        0.0468
     44 N          -6.1723   -7.9304    0.0023 N.ar    1  LIG1       -0.2196
     45 H          -9.4583   -5.7968    0.0007 H       1  LIG1        0.0639
     46 H          -7.3895   -9.8127    0.0028 H       1  LIG1        0.0843
     47 O          -4.9481   -6.0525    0.0018 O.3     1  LIG1       -0.4919
     48 H          -5.0255   -5.0956    0.0018 H       1  LIG1        0.2937
     49 C          -9.7344   -8.4155    0.0024 C.1     1  LIG1       -0.0681
     50 C         -10.7876   -8.9932    0.0025 C.1     1  LIG1       -0.1139
     51 H         -11.7257   -9.5077    0.0025 H       1  LIG1        0.1232
@<TRIPOS>BOND
     1    35    22    1
     2    10     8    1
     3     9     8    1
     4    38    36    1
     5    37    36    1
     6    20    16    1
     7     2     8    1
     8     2     1   ar
     9     2     3   ar
    10     6     5    1
    11     4    15    1
    12     4     5   ar
    13     4     3   ar
    14    15    14   ar
    15    15    16   ar
    16    21    14    1
    17     5     1   ar
    18    14    19   ar
    19    16    17   ar
    20     1     7    1
    21     3    11    1
    22    19    18   ar
    23    17    18   ar
    24    18    26    1
    25    22    32    1
    26    22    25    1
    27    22    34    1
    28    45    41    1
    29    30    29    1
    30    26    27    2
    31    11    12    3
    32    33    32    1
    33    27    31    1
    34    27    28    1
    35    31    23    1
    36    29    28    2
    37    29    40    1
    38    28    36    1
    39    12    13    1
    40    40    39   ar
    41    40    41   ar
    42    48    47    1
    43    47    39    1
    44    39    44   ar
    45    41    42   ar
    46    44    43   ar
    47    42    43   ar
    48    42    49    1
    49    43    46    1
    50    49    50    3
    51    50    51    1
