@<TRIPOS>MOLECULE
mol_data/noopt/geoms/mol2/13he4ia4fi13de12lh-13ha13ai6fa-.out
 96 102 0 0 0
SMALL
GASTEIGER

@<TRIPOS>ATOM
      1 C           1.1215   -0.3259    0.0002 C.ar    1  LIG1        0.0242
      2 C           0.7176    0.9721   -0.0005 C.ar    1  LIG1        0.0583
      3 C          -0.7144    0.9744    0.0003 C.ar    1  LIG1        0.0705
      4 C          -1.1226   -0.3223   -0.0003 C.ar    1  LIG1        0.0641
      5 N          -0.0018   -1.1217    0.0001 N.ar    1  LIG1       -0.3580
      6 H          -0.0034   -2.1157   -0.0003 H       1  LIG1        0.1654
      7 H           2.3167   -0.8373    0.0007 H       1  LIG1        0.0826
      8 N           1.4918    2.0164   -0.0003 N.pl3   1  LIG1       -0.3559
      9 H           2.3463    1.7980   -0.4717 H       1  LIG1        0.1424
     10 H           1.0345    2.7705   -0.4717 H       1  LIG1        0.1424
     11 C          -1.4853    2.0212    0.0010 C.1     1  LIG1       -0.0657
     12 C          -2.1976    2.9884    0.0016 C.1     1  LIG1       -0.1138
     13 H          -2.8321    3.8500    0.0022 H       1  LIG1        0.1232
     14 C          -3.4434    0.0212    0.0008 C.ar    1  LIG1       -0.0407
     15 C          -4.7180   -0.5776    0.0025 C.ar    1  LIG1       -0.0504
     16 C          -2.3194   -0.8299   -0.0001 C.ar    1  LIG1        0.0025
     17 C          -4.8692   -1.9625    0.0027 C.ar    1  LIG1       -0.0141
     18 H          -5.5988    0.0606    0.0034 H       1  LIG1        0.0626
     19 C          -2.4697   -2.2124    0.0001 C.ar    1  LIG1       -0.0518
     20 C          -3.7444   -2.7884    0.0015 C.ar    1  LIG1       -0.0533
     21 H          -1.5874   -2.8474   -0.0005 H       1  LIG1        0.0624
     22 C          -3.3661    1.3193    0.0004 C.3     1  LIG1       -0.0391
     23 H          -4.2170    1.7274    0.5047 H       1  LIG1        0.0278
     24 H          -3.3450    1.6750   -1.0086 H       1  LIG1        0.0278
     25 H          -2.4728    1.6235    0.5046 H       1  LIG1        0.0278
     26 H          -3.8788   -4.0814    0.0018 H       1  LIG1        0.0624
     27 C          -7.1931   -1.6414    0.0058 C.ar    1  LIG1        0.1252
     28 C          -8.4619   -2.2526    0.0089 C.ar    1  LIG1       -0.0104
     29 C          -6.0609   -2.4816    0.0042 C.ar    1  LIG1        0.0239
     30 C          -8.5996   -3.6389    0.0099 C.ar    1  LIG1        0.0035
     31 H          -9.3489   -1.6230    0.0104 H       1  LIG1        0.0661
     32 C          -6.1979   -3.8656    0.0051 C.ar    1  LIG1       -0.0470
     33 C          -7.4669   -4.4538    0.0079 C.ar    1  LIG1       -0.0407
     34 H          -5.3095   -4.4920    0.0040 H       1  LIG1        0.0628
     35 O          -7.1285   -0.3430    0.0048 O.3     1  LIG1       -0.5061
     36 H          -8.0164    0.0220    0.0046 H       1  LIG1        0.2922
     37 C          -7.5888   -5.7484    0.0089 C.3     1  LIG1       -0.0391
     38 H          -6.7524   -6.1850    0.5136 H       1  LIG1        0.0278
     39 H          -7.6222   -6.1043   -0.9997 H       1  LIG1        0.0278
     40 H          -8.4920   -6.0212    0.5135 H       1  LIG1        0.0278
     41 C          -9.7864   -4.1696    0.0127 C.2     1  LIG1        0.0543
     42 C         -11.0137   -3.5854    0.0308 C.2     1  LIG1        0.0864
     43 C         -11.9873   -4.6355    0.0259 C.2     1  LIG1        0.0468
     44 C         -11.3121   -5.8152    0.0033 C.3     1  LIG1        0.1614
     45 N          -9.9644   -5.5346   -0.0045 N.pl3   1  LIG1       -0.3237
     46 H          -9.2355   -6.2102   -0.0205 H       1  LIG1        0.1475
     47 N         -11.4681   -1.1817    0.0680 N.1     1  LIG1       -0.1908
     48 C         -11.2552   -2.3082    0.0505 C.1     1  LIG1        0.1020
     49 C         -13.2792   -4.4914    0.0401 C.1     1  LIG1       -0.1200
     50 C         -14.4729   -4.3581    0.0531 C.2     1  LIG1       -0.0558
     51 H         -15.5363   -4.2395    0.0647 H       1  LIG1        0.0622
     52 C         -11.7516   -7.0386   -0.0093 C.ar    1  LIG1        0.1853
     53 C         -12.9945   -7.6371   -0.0040 C.ar    1  LIG1        0.2434
     54 C         -12.7665   -9.0669   -0.0269 C.ar    1  LIG1        0.1203
     55 C         -11.3987   -9.2474   -0.0448 C.ar    1  LIG1        0.1776
     56 O         -10.7513   -8.0114   -0.0345 O.2     1  LIG1       -0.4496
     57 O         -14.1573   -7.0561    0.0173 O.3     1  LIG1       -0.2822
     58 C         -13.9817   -5.6370    0.0251 C.3     2  LIG2       -0.0531
     59 H         -14.9390   -5.1592    0.0425 H       1  LIG1        0.0622
     60 H         -13.4247   -5.3512    0.8929 H       1  LIG1        0.0265
     61 H         -13.4501   -5.3385   -0.8542 H       1  LIG1        0.0265
     62 N         -13.6903   -9.9815   -0.0297 N.pl3   1  LIG1       -0.3520
     63 H         -14.5009   -9.6351   -0.5018 H       1  LIG1        0.1425
     64 H         -13.3521  -10.7955   -0.5019 H       1  LIG1        0.1425
     65 C         -10.5999  -10.2727   -0.0683 C.ar    1  LIG1        0.1054
     66 C         -10.8738  -11.6043   -0.0680 C.ar    1  LIG1        0.0539
     67 C          -9.6217  -12.2984   -0.0996 C.ar    1  LIG1       -0.0135
     68 C          -8.6378  -11.3606   -0.1195 C.ar    1  LIG1        0.0652
     69 N          -9.2323  -10.1190   -0.1000 N.ar    1  LIG1       -0.3491
     70 H          -8.7505   -9.2497   -0.1082 H       1  LIG1        0.1661
     71 N         -12.0561  -12.1443   -0.0422 N.pl3   1  LIG1       -0.3562
     72 H         -12.7070  -11.5439   -0.5069 H       1  LIG1        0.1424
     73 H         -12.0286  -13.0293   -0.5069 H       1  LIG1        0.1424
     74 H          -9.4530  -13.5874   -0.1081 H       1  LIG1        0.0658
     75 C          -7.3451  -11.4947   -0.1503 C.ar    1  LIG1        0.0636
     76 C          -6.5749  -12.6147   -0.1716 C.ar    1  LIG1       -0.0315
     77 C          -5.2069  -12.1924   -0.2015 C.ar    1  LIG1       -0.0244
     78 C          -5.2013  -10.8330   -0.1989 C.ar    1  LIG1        0.0550
     79 N          -6.5083  -10.4017   -0.1672 N.ar    1  LIG1       -0.3527
     80 H          -6.8013   -9.4519   -0.1585 H       1  LIG1        0.1660
     81 H          -7.0047  -13.8415   -0.1643 H       1  LIG1        0.0642
     82 C          -4.1604  -12.9638   -0.2269 C.3     1  LIG1       -0.0377
     83 H          -3.3470  -12.4780    0.2705 H       1  LIG1        0.0278
     84 H          -3.8892  -13.1636   -1.2425 H       1  LIG1        0.0278
     85 H          -4.3839  -13.8845    0.2704 H       1  LIG1        0.0278
     86 C          -4.4504   -8.6077   -0.2521 C.ar    1  LIG1        0.2216
     87 C          -4.2090   -9.9934   -0.2197 C.ar    1  LIG1        0.0599
     88 C          -2.8862  -10.4397   -0.2102 C.ar    1  LIG1       -0.0461
     89 C          -1.8583   -9.4955   -0.2334 C.ar    1  LIG1       -0.0427
     90 C          -2.2003   -8.1311   -0.2654 C.ar    1  LIG1        0.0314
     91 N          -3.4710   -7.6831   -0.2748 N.ar    1  LIG1       -0.2209
     92 H          -2.6586  -11.5148   -0.1862 H       1  LIG1        0.0626
     93 H          -1.2789   -7.2144   -0.2878 H       1  LIG1        0.0831
     94 O          -5.6648   -8.1437   -0.2619 O.3     1  LIG1       -0.4919
     95 H          -6.2871   -8.8747   -0.2644 H       1  LIG1        0.2937
     96 H          -0.6105   -9.8602   -0.2260 H       1  LIG1        0.0633
@<TRIPOS>BOND
     1    84    82    1
     2    24    22    1
     3    39    37    1
     4    61    58    1
     5    73    71    1
     6    72    71    1
     7    64    62    1
     8    63    62    1
     9    10     8    1
    10     9     8    1
    11    93    90    1
    12    91    90   ar
    13    91    86   ar
    14    90    89   ar
    15    95    94    1
    16    94    86    1
    17    86    87   ar
    18    89    96    1
    19    89    88   ar
    20    82    77    1
    21    82    85    1
    22    82    83    1
    23    87    88   ar
    24    87    78    1
    25    88    92    1
    26    77    78   ar
    27    77    76   ar
    28    78    79   ar
    29    76    81    1
    30    76    75   ar
    31    79    80    1
    32    79    75   ar
    33    75    68    1
    34    68    69   ar
    35    68    67   ar
    36    70    69    1
    37    74    67    1
    38    69    65   ar
    39    67    66   ar
    40    65    66   ar
    41    65    55    1
    42    66    71    1
    43    55    56   ar
    44    55    54   ar
    45    56    52   ar
    46    62    54    1
    47    54    53   ar
    48    46    45    1
    49    52    53   ar
    50    52    44    1
    51    45    44    1
    52    45    41    1
    53    53    57    1
    54     2     8    1
    55     2     1   ar
    56     2     3   ar
    57    21    19    1
    58     6     5    1
    59     4    16    1
    60     4     5   ar
    61     4     3   ar
    62    16    19   ar
    63    16    14   ar
    64     5     1   ar
    65    19    20   ar
    66     1     7    1
    67     3    11    1
    68    22    14    1
    69    22    25    1
    70    22    23    1
    71    14    15   ar
    72    11    12    3
    73    20    26    1
    74    20    17   ar
    75    12    13    1
    76    15    17   ar
    77    15    18    1
    78    17    29    1
    79    44    43    1
    80    34    32    1
    81    29    32   ar
    82    29    27   ar
    83    36    35    1
    84    35    27    1
    85    32    33   ar
    86    27    28   ar
    87    33    37    1
    88    33    30   ar
    89    37    40    1
    90    37    38    1
    91    28    30   ar
    92    28    31    1
    93    30    41    1
    94    41    42    2
    95    58    60    1
    96    43    42    1
    97    43    49    2
    98    42    48    1
    99    49    50    2
   100    59    50    1
   101    48    47    3
   102    50    51    1
