@<TRIPOS>MOLECULE
mol_data/noopt/geoms/mol2/13he13he-13he.out
 38 40 0 0 0
SMALL
GASTEIGER

@<TRIPOS>ATOM
      1 C           1.1215   -0.3259    0.0002 C.ar    1  LIG1        0.0243
      2 C           0.7176    0.9721   -0.0005 C.ar    1  LIG1        0.0584
      3 C          -0.7144    0.9744    0.0003 C.ar    1  LIG1        0.0720
      4 C          -1.1226   -0.3223   -0.0003 C.ar    1  LIG1        0.0821
      5 N          -0.0018   -1.1217    0.0001 N.ar    1  LIG1       -0.3569
      6 H          -0.0034   -2.1157   -0.0003 H       1  LIG1        0.1655
      7 H           2.3167   -0.8373    0.0007 H       1  LIG1        0.0826
      8 N           1.4918    2.0164   -0.0003 N.pl3   1  LIG1       -0.3559
      9 H           2.3463    1.7980   -0.4717 H       1  LIG1        0.1424
     10 H           1.0345    2.7705   -0.4717 H       1  LIG1        0.1424
     11 C          -1.4853    2.0212    0.0010 C.1     1  LIG1       -0.0656
     12 C          -2.1976    2.9884    0.0016 C.1     1  LIG1       -0.1138
     13 H          -2.8321    3.8500    0.0022 H       1  LIG1        0.1232
     14 C          -2.3194   -0.8299   -0.0001 C.ar    1  LIG1        0.0868
     15 C          -2.7274   -2.1266   -0.0005 C.ar    1  LIG1        0.0679
     16 C          -4.1594   -2.1244    0.0011 C.ar    1  LIG1        0.0727
     17 C          -4.5635   -0.8264    0.0006 C.ar    1  LIG1        0.0826
     18 N          -3.4402   -0.0305    0.0003 N.ar    1  LIG1       -0.3493
     19 H          -3.4386    0.9635   -0.0001 H       1  LIG1        0.1661
     20 N          -1.9565   -3.1734   -0.0006 N.pl3   1  LIG1       -0.3553
     21 H          -2.4164   -3.9259   -0.4720 H       1  LIG1        0.1424
     22 H          -1.1015   -2.9576   -0.4721 H       1  LIG1        0.1424
     23 C          -4.9336   -3.1687    0.0023 C.1     1  LIG1       -0.0656
     24 C          -5.6490   -4.1337    0.0035 C.1     1  LIG1       -0.1138
     25 H          -6.2862   -4.9932    0.0045 H       1  LIG1        0.1232
     26 C          -5.7587   -0.3150    0.0014 C.ar    1  LIG1        0.0863
     27 C          -6.1626    0.9830    0.0016 C.ar    1  LIG1        0.0672
     28 C          -7.5946    0.9853    0.0038 C.ar    1  LIG1        0.0632
     29 C          -8.0028   -0.3114    0.0030 C.ar    1  LIG1        0.0195
     30 N          -6.8820   -1.1108    0.0021 N.ar    1  LIG1       -0.3569
     31 H          -6.8836   -2.1048    0.0013 H       1  LIG1        0.1655
     32 H          -9.1996   -0.8190    0.0041 H       1  LIG1        0.0820
     33 N          -5.3884    2.0273    0.0015 N.pl3   1  LIG1       -0.3553
     34 H          -4.5340    1.8088   -0.4699 H       1  LIG1        0.1424
     35 H          -5.8458    2.7813   -0.4699 H       1  LIG1        0.1424
     36 C          -8.3655    2.0321    0.0056 C.1     1  LIG1       -0.0663
     37 C          -9.0778    2.9993    0.0073 C.1     1  LIG1       -0.1138
     38 H          -9.7123    3.8609    0.0088 H       1  LIG1        0.1232
@<TRIPOS>BOND
     1    22    20    1
     2    21    20    1
     3    10     8    1
     4     9     8    1
     5    35    33    1
     6    34    33    1
     7    20    15    1
     8     2     8    1
     9     2     1   ar
    10     2     3   ar
    11    15    14   ar
    12    15    16   ar
    13     4    14    1
    14     4     5   ar
    15     4     3   ar
    16     6     5    1
    17    19    18    1
    18    14    18   ar
    19     5     1   ar
    20     1     7    1
    21     3    11    1
    22    18    17   ar
    23    17    16   ar
    24    17    26    1
    25    11    12    3
    26    16    23    1
    27    31    30    1
    28    26    27   ar
    29    26    30   ar
    30    33    27    1
    31    27    28   ar
    32    12    13    1
    33    30    29   ar
    34    23    24    3
    35    29    28   ar
    36    29    32    1
    37    24    25    1
    38    28    36    1
    39    36    37    3
    40    37    38    1
