@<TRIPOS>MOLECULE
mol_data/noopt/geoms/mol2/13he13he13he13he.out
 50 53 0 0 0
SMALL
GASTEIGER

@<TRIPOS>ATOM
      1 C           1.1215   -0.3259    0.0002 C.ar    1  LIG1        0.0243
      2 C           0.7176    0.9721   -0.0005 C.ar    1  LIG1        0.0584
      3 C          -0.7144    0.9744    0.0003 C.ar    1  LIG1        0.0720
      4 C          -1.1226   -0.3223   -0.0003 C.ar    1  LIG1        0.0821
      5 N          -0.0018   -1.1217    0.0001 N.ar    1  LIG1       -0.3569
      6 H          -0.0034   -2.1157   -0.0003 H       1  LIG1        0.1655
      7 H           2.3167   -0.8373    0.0007 H       1  LIG1        0.0826
      8 N           1.4918    2.0164   -0.0003 N.pl3   1  LIG1       -0.3559
      9 H           2.3463    1.7980   -0.4717 H       1  LIG1        0.1424
     10 H           1.0345    2.7705   -0.4717 H       1  LIG1        0.1424
     11 C          -1.4853    2.0212    0.0010 C.1     1  LIG1       -0.0656
     12 C          -2.1976    2.9884    0.0016 C.1     1  LIG1       -0.1138
     13 H          -2.8321    3.8500    0.0022 H       1  LIG1        0.1232
     14 C          -2.3194   -0.8299   -0.0001 C.ar    1  LIG1        0.0868
     15 C          -3.5353   -0.2219   -0.0003 C.ar    1  LIG1        0.0679
     16 C          -4.5290   -1.2530    0.0012 C.ar    1  LIG1        0.0727
     17 C          -3.8767   -2.4457    0.0005 C.ar    1  LIG1        0.0826
     18 N          -2.5238   -2.1913    0.0002 N.ar    1  LIG1       -0.3493
     19 H          -1.8081   -2.8811   -0.0004 H       1  LIG1        0.1661
     20 N          -3.7520    1.0599   -0.0003 N.pl3   1  LIG1       -0.3553
     21 H          -3.0025    1.5247   -0.4717 H       1  LIG1        0.1424
     22 H          -4.6126    1.2525   -0.4717 H       1  LIG1        0.1424
     23 C          -5.8179   -1.0837    0.0025 C.1     1  LIG1       -0.0656
     24 C          -7.0089   -0.9273    0.0037 C.1     1  LIG1       -0.1138
     25 H          -8.0698   -0.7879    0.0048 H       1  LIG1        0.1232
     26 C          -4.3398   -3.6604    0.0012 C.ar    1  LIG1        0.0868
     27 C          -5.6206   -4.1160    0.0013 C.ar    1  LIG1        0.0679
     28 C          -5.5655   -5.5470    0.0033 C.ar    1  LIG1        0.0727
     29 C          -4.2535   -5.9029    0.0026 C.ar    1  LIG1        0.0826
     30 N          -3.4996   -4.7510    0.0018 N.ar    1  LIG1       -0.3493
     31 H          -2.5064   -4.7127    0.0010 H       1  LIG1        0.1661
     32 N          -6.6951   -3.3843    0.0012 N.pl3   1  LIG1       -0.3553
     33 H          -6.5110   -2.5218   -0.4702 H       1  LIG1        0.1424
     34 H          -7.4301   -3.8715   -0.4702 H       1  LIG1        0.1424
     35 C          -6.5805   -6.3592    0.0050 C.1     1  LIG1       -0.0656
     36 C          -7.5184   -7.1097    0.0066 C.1     1  LIG1       -0.1138
     37 H          -8.3539   -7.7782    0.0080 H       1  LIG1        0.1232
     38 C          -3.6983   -7.0784    0.0036 C.ar    1  LIG1        0.0863
     39 C          -4.2571   -8.3176    0.0039 C.ar    1  LIG1        0.0672
     40 C          -3.1870   -9.2693    0.0063 C.ar    1  LIG1        0.0632
     41 C          -2.0214   -8.5697    0.0055 C.ar    1  LIG1        0.0195
     42 N          -2.3298   -7.2280    0.0043 N.ar    1  LIG1       -0.3569
     43 H          -1.6693   -6.4852    0.0035 H       1  LIG1        0.1655
     44 H          -0.7891   -8.9837    0.0068 H       1  LIG1        0.0820
     45 N          -5.5292   -8.5856    0.0038 N.pl3   1  LIG1       -0.3553
     46 H          -6.0236   -7.8553   -0.4677 H       1  LIG1        0.1424
     47 H          -5.6870   -9.4532   -0.4677 H       1  LIG1        0.1424
     48 C          -3.3045  -10.5639    0.0083 C.1     1  LIG1       -0.0663
     49 C          -3.4131  -11.7602    0.0101 C.1     1  LIG1       -0.1138
     50 H          -3.5098  -12.8258    0.0118 H       1  LIG1        0.1232
@<TRIPOS>BOND
     1    22    20    1
     2    10     8    1
     3    21    20    1
     4     9     8    1
     5    34    32    1
     6    33    32    1
     7    47    45    1
     8    46    45    1
     9     2     8    1
    10     2     1   ar
    11     2     3   ar
    12    19    18    1
    13    15    20    1
    14    15    14   ar
    15    15    16   ar
    16     6     5    1
    17     4    14    1
    18     4     5   ar
    19     4     3   ar
    20    14    18   ar
    21     5     1   ar
    22    18    17   ar
    23     1     7    1
    24     3    11    1
    25    17    16   ar
    26    17    26    1
    27    31    30    1
    28    11    12    3
    29    16    23    1
    30    26    27   ar
    31    26    30   ar
    32    32    27    1
    33    27    28   ar
    34    12    13    1
    35    30    29   ar
    36    23    24    3
    37    29    28   ar
    38    29    38    1
    39    28    35    1
    40    43    42    1
    41    38    39   ar
    42    38    42   ar
    43    24    25    1
    44    45    39    1
    45    39    40   ar
    46    42    41   ar
    47    35    36    3
    48    41    40   ar
    49    41    44    1
    50    40    48    1
    51    36    37    1
    52    48    49    3
    53    49    50    1
