@<TRIPOS>MOLECULE
mol_data/noopt/geoms/mol2/13he4fl(50)4el(220)13ad(250).out
 54 57 0 0 0
SMALL
GASTEIGER

@<TRIPOS>ATOM
      1 C           1.1215   -0.3259    0.0002 C.ar    1  LIG1        0.0242
      2 C           0.7176    0.9721   -0.0005 C.ar    1  LIG1        0.0583
      3 C          -0.7144    0.9744    0.0003 C.ar    1  LIG1        0.0706
      4 C          -1.1226   -0.3223   -0.0003 C.ar    1  LIG1        0.0675
      5 N          -0.0018   -1.1217    0.0001 N.ar    1  LIG1       -0.3579
      6 H          -0.0034   -2.1157   -0.0003 H       1  LIG1        0.1654
      7 H           2.3167   -0.8373    0.0007 H       1  LIG1        0.0826
      8 N           1.4918    2.0164   -0.0003 N.pl3   1  LIG1       -0.3559
      9 H           2.3463    1.7980   -0.4717 H       1  LIG1        0.1424
     10 H           1.0345    2.7705   -0.4717 H       1  LIG1        0.1424
     11 C          -1.4853    2.0212    0.0010 C.1     1  LIG1       -0.0657
     12 C          -2.1976    2.9884    0.0016 C.1     1  LIG1       -0.1138
     13 H          -2.8321    3.8500    0.0022 H       1  LIG1        0.1232
     14 C          -3.2725   -0.3812    0.9369 C.ar    1  LIG1        0.1268
     15 C          -4.5542   -0.9635    0.8970 C.ar    1  LIG1       -0.0081
     16 C          -2.3194   -0.8299   -0.0001 C.ar    1  LIG1        0.0446
     17 C          -4.8750   -1.9487   -0.0342 C.ar    1  LIG1        0.0327
     18 H          -5.3047   -0.6321    1.6112 H       1  LIG1        0.0661
     19 C          -2.6391   -1.8134   -0.9299 C.ar    1  LIG1       -0.0017
     20 C          -3.9180   -2.3794   -0.9539 C.ar    1  LIG1        0.1875
     21 H          -1.8867   -2.1425   -1.6421 H       1  LIG1        0.0664
     22 O          -3.0328    0.5339    1.8287 O.3     1  LIG1       -0.5061
     23 H          -3.8492    0.9887    2.0485 H       1  LIG1        0.2922
     24 O          -4.2112   -3.2985   -1.8253 O.3     1  LIG1       -0.2872
     25 C          -5.6030   -3.2263   -2.1453 C.3     1  LIG1       -0.0544
     26 H          -5.8438   -3.9828   -2.8626 H       1  LIG1        0.0239
     27 H          -6.1814   -3.3791   -1.2581 H       1  LIG1        0.0239
     28 H          -5.8255   -2.2630   -2.5545 H       1  LIG1        0.0239
     29 C          -6.3366   -3.6004   -0.8337 C.ar    1  LIG1       -0.0317
     30 C          -7.6452   -4.1205   -0.8098 C.ar    1  LIG1       -0.0448
     31 C          -6.0682   -2.4646   -0.0428 C.ar    1  LIG1       -0.0069
     32 C          -8.6437   -3.5374   -0.0329 C.ar    1  LIG1        0.0403
     33 H          -7.8740   -4.9963   -1.4128 H       1  LIG1        0.0628
     34 C          -7.0646   -1.8821    0.7330 C.ar    1  LIG1       -0.0112
     35 C          -8.3584   -2.4137    0.7437 C.ar    1  LIG1        0.1298
     36 H          -6.8327   -1.0067    1.3343 H       1  LIG1        0.0660
     37 C          -5.4476   -4.1882   -1.5782 C.3     1  LIG1        0.0066
     38 C          -4.6261   -4.7312   -2.2660 C.3     1  LIG1       -0.0229
     39 H          -3.8943   -5.2150   -2.8787 H       1  LIG1        0.0316
     40 O          -9.2859   -1.8648    1.4707 O.3     1  LIG1       -0.4944
     41 C          -8.9399   -0.5031    1.7376 C.3     1  LIG1        0.0788
     42 H          -9.7036   -0.0517    2.3358 H       1  LIG1        0.0660
     43 H          -8.0082   -0.4682    2.2627 H       1  LIG1        0.0660
     44 H          -8.8489    0.0294    0.8140 H       1  LIG1        0.0660
     45 C          -9.8410   -4.0437   -0.0344 C.ar    1  LIG1        0.0512
     46 C         -10.5039   -4.7377   -0.9972 C.ar    1  LIG1       -0.0189
     47 C         -11.7988   -5.0597   -0.4774 C.ar    1  LIG1        0.0696
     48 C         -11.8697   -4.5498    0.7808 C.ar    1  LIG1        0.0196
     49 N         -10.6734   -3.9265    1.0558 N.ar    1  LIG1       -0.3594
     50 H         -10.4464   -3.4657    1.9068 H       1  LIG1        0.1654
     51 H         -12.8347   -4.5827    1.6512 H       1  LIG1        0.0820
     52 H         -10.0442   -5.0486   -2.1727 H       1  LIG1        0.0652
     53 N         -13.5628   -6.2992   -1.6340 N.1     1  LIG1       -0.1908
     54 C         -12.7361   -5.7183   -1.0919 C.1     1  LIG1        0.1007
@<TRIPOS>BOND
     1    39    38    1
     2    26    25    1
     3    28    25    1
     4    38    37    1
     5    52    46    1
     6    25    37    1
     7    25    27    1
     8    24    20    1
     9    21    19    1
    10    53    54    3
    11    37    29    1
    12    33    30    1
    13    54    47    1
    14    46    47   ar
    15    46    45   ar
    16    20    19   ar
    17    20    17   ar
    18    19    16   ar
    19    29    30   ar
    20    29    31   ar
    21    30    32   ar
    22    47    48   ar
    23    10     8    1
    24     9     8    1
    25    31    17    1
    26    31    34   ar
    27    45    32    1
    28    45    49   ar
    29    17    15   ar
    30    32    35   ar
    31     2     8    1
    32     2     1   ar
    33     2     3   ar
    34     4    16    1
    35     4     5   ar
    36     4     3   ar
    37     6     5    1
    38    16    14   ar
    39     5     1   ar
    40     1     7    1
    41     3    11    1
    42    11    12    3
    43    12    13    1
    44    34    35   ar
    45    34    36    1
    46    35    40    1
    47    48    49   ar
    48    48    51    1
    49    44    41    1
    50    15    14   ar
    51    15    18    1
    52    14    22    1
    53    49    50    1
    54    40    41    1
    55    41    43    1
    56    41    42    1
    57    22    23    1
