@<TRIPOS>MOLECULE
mol_data/noopt/geoms/mol2/13he13he.out
 26 27 0 0 0
SMALL
GASTEIGER

@<TRIPOS>ATOM
      1 C           1.1215   -0.3259    0.0002 C.ar    1  LIG1        0.0243
      2 C           0.7176    0.9721   -0.0005 C.ar    1  LIG1        0.0584
      3 C          -0.7144    0.9744    0.0003 C.ar    1  LIG1        0.0720
      4 C          -1.1226   -0.3223   -0.0003 C.ar    1  LIG1        0.0821
      5 N          -0.0018   -1.1217    0.0001 N.ar    1  LIG1       -0.3569
      6 H          -0.0034   -2.1157   -0.0003 H       1  LIG1        0.1655
      7 H           2.3167   -0.8373    0.0007 H       1  LIG1        0.0826
      8 N           1.4918    2.0164   -0.0003 N.pl3   1  LIG1       -0.3559
      9 H           2.3463    1.7980   -0.4717 H       1  LIG1        0.1424
     10 H           1.0345    2.7705   -0.4717 H       1  LIG1        0.1424
     11 C          -1.4853    2.0212    0.0010 C.1     1  LIG1       -0.0656
     12 C          -2.1976    2.9884    0.0016 C.1     1  LIG1       -0.1138
     13 H          -2.8321    3.8500    0.0022 H       1  LIG1        0.1232
     14 C          -2.3194   -0.8299   -0.0001 C.ar    1  LIG1        0.0863
     15 C          -3.5353   -0.2219   -0.0003 C.ar    1  LIG1        0.0672
     16 C          -4.5290   -1.2530    0.0012 C.ar    1  LIG1        0.0632
     17 C          -3.8767   -2.4457    0.0005 C.ar    1  LIG1        0.0195
     18 N          -2.5238   -2.1913    0.0002 N.ar    1  LIG1       -0.3569
     19 H          -1.8081   -2.8811   -0.0004 H       1  LIG1        0.1655
     20 H          -4.3398   -3.6604    0.0012 H       1  LIG1        0.0820
     21 N          -3.7520    1.0599   -0.0003 N.pl3   1  LIG1       -0.3553
     22 H          -3.0025    1.5247   -0.4717 H       1  LIG1        0.1424
     23 H          -4.6126    1.2525   -0.4717 H       1  LIG1        0.1424
     24 C          -5.8179   -1.0837    0.0025 C.1     1  LIG1       -0.0663
     25 C          -7.0089   -0.9273    0.0037 C.1     1  LIG1       -0.1138
     26 H          -8.0698   -0.7879    0.0048 H       1  LIG1        0.1232
@<TRIPOS>BOND
     1    23    21    1
     2    10     8    1
     3    22    21    1
     4     9     8    1
     5     2     8    1
     6     2     1   ar
     7     2     3   ar
     8    19    18    1
     9    15    21    1
    10    15    14   ar
    11    15    16   ar
    12     4    14    1
    13     4     5   ar
    14     4     3   ar
    15     6     5    1
    16    14    18   ar
    17     5     1   ar
    18    18    17   ar
    19     1     7    1
    20     3    11    1
    21    17    16   ar
    22    17    20    1
    23    11    12    3
    24    16    24    1
    25    12    13    1
    26    24    25    3
    27    25    26    1
