@<TRIPOS>MOLECULE
mol_data/noopt/geoms/mol2/13hf13hf-13hf13hf-.out
 46 49 0 0 0
SMALL
GASTEIGER

@<TRIPOS>ATOM
      1 C           1.1215   -0.3259    0.0002 C.ar    1  LIG1        0.0267
      2 C           0.7176    0.9721   -0.0005 C.ar    1  LIG1        0.0849
      3 C          -0.7144    0.9744    0.0003 C.ar    1  LIG1        0.1643
      4 C          -1.1226   -0.3223   -0.0003 C.ar    1  LIG1        0.1087
      5 N          -0.0018   -1.1217    0.0001 N.ar    1  LIG1       -0.3549
      6 H          -0.0034   -2.1157   -0.0003 H       1  LIG1        0.1655
      7 H           2.3167   -0.8373    0.0007 H       1  LIG1        0.0827
      8 N           1.4918    2.0164   -0.0003 N.pl3   1  LIG1       -0.3540
      9 H           2.3463    1.7980   -0.4717 H       1  LIG1        0.1425
     10 H           1.0345    2.7705   -0.4717 H       1  LIG1        0.1425
     11 O          -1.4853    2.0212    0.0010 O.3     1  LIG1       -0.5031
     12 H          -2.4040    1.7426    0.0012 H       1  LIG1        0.2923
     13 C          -2.3194   -0.8299   -0.0001 C.ar    1  LIG1        0.0916
     14 C          -2.7274   -2.1266   -0.0005 C.ar    1  LIG1        0.0945
     15 C          -4.1594   -2.1244    0.0011 C.ar    1  LIG1        0.1650
     16 C          -4.5635   -0.8264    0.0006 C.ar    1  LIG1        0.1092
     17 N          -3.4402   -0.0305    0.0003 N.ar    1  LIG1       -0.3473
     18 H          -3.4386    0.9635   -0.0001 H       1  LIG1        0.1662
     19 N          -1.9565   -3.1734   -0.0006 N.pl3   1  LIG1       -0.3534
     20 H          -2.4164   -3.9259   -0.4720 H       1  LIG1        0.1425
     21 H          -1.1015   -2.9576   -0.4721 H       1  LIG1        0.1425
     22 O          -4.9337   -3.1687    0.0023 O.3     1  LIG1       -0.5030
     23 H          -4.3975   -3.9651    0.0026 H       1  LIG1        0.2923
     24 C          -5.7587   -0.3150    0.0014 C.ar    1  LIG1        0.0916
     25 C          -6.1626    0.9830    0.0016 C.ar    1  LIG1        0.0945
     26 C          -7.5946    0.9853    0.0038 C.ar    1  LIG1        0.1650
     27 C          -8.0028   -0.3114    0.0030 C.ar    1  LIG1        0.1092
     28 N          -6.8820   -1.1108    0.0021 N.ar    1  LIG1       -0.3473
     29 H          -6.8836   -2.1048    0.0013 H       1  LIG1        0.1662
     30 N          -5.3884    2.0273    0.0015 N.pl3   1  LIG1       -0.3534
     31 H          -4.5340    1.8088   -0.4699 H       1  LIG1        0.1425
     32 H          -5.8458    2.7813   -0.4699 H       1  LIG1        0.1425
     33 O          -8.3655    2.0321    0.0056 O.3     1  LIG1       -0.5030
     34 H          -9.2842    1.7535    0.0060 H       1  LIG1        0.2923
     35 C          -9.1996   -0.8190    0.0041 C.ar    1  LIG1        0.0912
     36 C          -9.6076   -2.1157    0.0044 C.ar    1  LIG1        0.0938
     37 C         -11.0396   -2.1135    0.0069 C.ar    1  LIG1        0.1554
     38 C         -11.4437   -0.8155    0.0063 C.ar    1  LIG1        0.0461
     39 N         -10.3204   -0.0196    0.0051 N.ar    1  LIG1       -0.3549
     40 H         -10.3188    0.9744    0.0043 H       1  LIG1        0.1655
     41 H         -12.6389   -0.3041    0.0077 H       1  LIG1        0.0845
     42 N          -8.8367   -3.1625    0.0040 N.pl3   1  LIG1       -0.3535
     43 H          -9.2966   -3.9150   -0.4675 H       1  LIG1        0.1425
     44 H          -7.9817   -2.9466   -0.4675 H       1  LIG1        0.1425
     45 O         -11.8139   -3.1578    0.0089 O.3     1  LIG1       -0.5035
     46 H         -11.2777   -3.9542    0.0094 H       1  LIG1        0.2923
@<TRIPOS>BOND
     1    21    19    1
     2    20    19    1
     3    10     8    1
     4     9     8    1
     5    32    30    1
     6    31    30    1
     7    44    42    1
     8    43    42    1
     9    19    14    1
    10     2     8    1
    11     2     1   ar
    12     2     3   ar
    13    14    13   ar
    14    14    15   ar
    15     6     5    1
    16     4    13    1
    17     4     5   ar
    18     4     3   ar
    19    18    17    1
    20    13    17   ar
    21     5     1   ar
    22     1     7    1
    23     3    11    1
    24    17    16   ar
    25    16    15   ar
    26    16    24    1
    27    11    12    1
    28    15    22    1
    29    29    28    1
    30    24    25   ar
    31    24    28   ar
    32    30    25    1
    33    25    26   ar
    34    28    27   ar
    35    22    23    1
    36    27    26   ar
    37    27    35    1
    38    26    33    1
    39    42    36    1
    40    35    36   ar
    41    35    39   ar
    42    40    39    1
    43    36    37   ar
    44    39    38   ar
    45    33    34    1
    46    38    37   ar
    47    38    41    1
    48    37    45    1
    49    45    46    1
