@<TRIPOS>MOLECULE
mol_data/noopt/geoms/mol2/13hf13hf13hf13hf.out
 46 49 0 0 0
SMALL
GASTEIGER

@<TRIPOS>ATOM
      1 C           1.1215   -0.3259    0.0002 C.ar    1  LIG1        0.0267
      2 C           0.7176    0.9721   -0.0005 C.ar    1  LIG1        0.0849
      3 C          -0.7144    0.9744    0.0003 C.ar    1  LIG1        0.1643
      4 C          -1.1226   -0.3223   -0.0003 C.ar    1  LIG1        0.1087
      5 N          -0.0018   -1.1217    0.0001 N.ar    1  LIG1       -0.3549
      6 H          -0.0034   -2.1157   -0.0003 H       1  LIG1        0.1655
      7 H           2.3167   -0.8373    0.0007 H       1  LIG1        0.0827
      8 N           1.4918    2.0164   -0.0003 N.pl3   1  LIG1       -0.3540
      9 H           2.3463    1.7980   -0.4717 H       1  LIG1        0.1425
     10 H           1.0345    2.7705   -0.4717 H       1  LIG1        0.1425
     11 O          -1.4853    2.0212    0.0010 O.3     1  LIG1       -0.5031
     12 H          -2.4040    1.7426    0.0012 H       1  LIG1        0.2923
     13 C          -2.3194   -0.8299   -0.0001 C.ar    1  LIG1        0.0916
     14 C          -3.5353   -0.2219   -0.0003 C.ar    1  LIG1        0.0945
     15 C          -4.5290   -1.2530    0.0012 C.ar    1  LIG1        0.1650
     16 C          -3.8767   -2.4457    0.0005 C.ar    1  LIG1        0.1092
     17 N          -2.5238   -2.1913    0.0002 N.ar    1  LIG1       -0.3473
     18 H          -1.8081   -2.8811   -0.0004 H       1  LIG1        0.1662
     19 N          -3.7520    1.0599   -0.0003 N.pl3   1  LIG1       -0.3534
     20 H          -3.0025    1.5247   -0.4717 H       1  LIG1        0.1425
     21 H          -4.6126    1.2525   -0.4717 H       1  LIG1        0.1425
     22 O          -5.8180   -1.0837    0.0025 O.3     1  LIG1       -0.5030
     23 H          -6.2535   -1.9392    0.0028 H       1  LIG1        0.2923
     24 C          -4.3398   -3.6604    0.0012 C.ar    1  LIG1        0.0916
     25 C          -5.6206   -4.1160    0.0013 C.ar    1  LIG1        0.0945
     26 C          -5.5655   -5.5470    0.0033 C.ar    1  LIG1        0.1650
     27 C          -4.2535   -5.9029    0.0026 C.ar    1  LIG1        0.1092
     28 N          -3.4996   -4.7510    0.0018 N.ar    1  LIG1       -0.3473
     29 H          -2.5064   -4.7127    0.0010 H       1  LIG1        0.1662
     30 N          -6.6951   -3.3843    0.0012 N.pl3   1  LIG1       -0.3534
     31 H          -6.5110   -2.5218   -0.4702 H       1  LIG1        0.1425
     32 H          -7.4301   -3.8715   -0.4702 H       1  LIG1        0.1425
     33 O          -6.5806   -6.3592    0.0050 O.3     1  LIG1       -0.5030
     34 H          -6.2653   -7.2660    0.0054 H       1  LIG1        0.2923
     35 C          -3.6983   -7.0784    0.0036 C.ar    1  LIG1        0.0912
     36 C          -4.2571   -8.3176    0.0039 C.ar    1  LIG1        0.0938
     37 C          -3.1870   -9.2693    0.0063 C.ar    1  LIG1        0.1554
     38 C          -2.0214   -8.5697    0.0055 C.ar    1  LIG1        0.0461
     39 N          -2.3298   -7.2280    0.0043 N.ar    1  LIG1       -0.3549
     40 H          -1.6693   -6.4852    0.0035 H       1  LIG1        0.1655
     41 H          -0.7891   -8.9837    0.0068 H       1  LIG1        0.0845
     42 N          -5.5292   -8.5856    0.0038 N.pl3   1  LIG1       -0.3535
     43 H          -6.0236   -7.8553   -0.4677 H       1  LIG1        0.1425
     44 H          -5.6870   -9.4532   -0.4677 H       1  LIG1        0.1425
     45 O          -3.3045  -10.5640    0.0083 O.3     1  LIG1       -0.5035
     46 H          -2.4322  -10.9649    0.0088 H       1  LIG1        0.2923
@<TRIPOS>BOND
     1    21    19    1
     2    10     8    1
     3    20    19    1
     4     9     8    1
     5    32    30    1
     6    31    30    1
     7    44    42    1
     8    43    42    1
     9     2     8    1
    10     2     1   ar
    11     2     3   ar
    12    18    17    1
    13    14    19    1
    14    14    13   ar
    15    14    15   ar
    16     6     5    1
    17     4    13    1
    18     4     5   ar
    19     4     3   ar
    20    13    17   ar
    21     5     1   ar
    22    17    16   ar
    23     1     7    1
    24     3    11    1
    25    16    15   ar
    26    16    24    1
    27    29    28    1
    28    11    12    1
    29    15    22    1
    30    24    25   ar
    31    24    28   ar
    32    30    25    1
    33    25    26   ar
    34    28    27   ar
    35    22    23    1
    36    27    26   ar
    37    27    35    1
    38    26    33    1
    39    40    39    1
    40    35    36   ar
    41    35    39   ar
    42    42    36    1
    43    36    37   ar
    44    39    38   ar
    45    33    34    1
    46    38    37   ar
    47    38    41    1
    48    37    45    1
    49    45    46    1
