@<TRIPOS>MOLECULE
mol_data/noopt/geoms/mol2/13hf6fh6ef12fa-.out
 45 48 0 0 0
SMALL
GASTEIGER

@<TRIPOS>ATOM
      1 C           1.1215   -0.3259    0.0002 C.ar    1  LIG1        0.0267
      2 C           0.7176    0.9721   -0.0005 C.ar    1  LIG1        0.0848
      3 C          -0.7144    0.9744    0.0003 C.ar    1  LIG1        0.1630
      4 C          -1.1226   -0.3223   -0.0003 C.ar    1  LIG1        0.0956
      5 N          -0.0018   -1.1217    0.0001 N.ar    1  LIG1       -0.3560
      6 H          -0.0034   -2.1157   -0.0003 H       1  LIG1        0.1655
      7 H           2.3167   -0.8373    0.0007 H       1  LIG1        0.0827
      8 N           1.4918    2.0164   -0.0003 N.pl3   1  LIG1       -0.3540
      9 H           2.3463    1.7980   -0.4717 H       1  LIG1        0.1425
     10 H           1.0345    2.7705   -0.4717 H       1  LIG1        0.1425
     11 O          -1.4853    2.0212    0.0010 O.3     1  LIG1       -0.5031
     12 H          -2.4040    1.7426    0.0012 H       1  LIG1        0.2923
     13 C          -2.5001   -2.2252    0.0002 C.ar    1  LIG1        0.2224
     14 C          -2.3194   -0.8299   -0.0001 C.ar    1  LIG1        0.0650
     15 C          -3.4502   -0.0112    0.0002 C.ar    1  LIG1       -0.0246
     16 C          -4.7120   -0.6082    0.0005 C.ar    1  LIG1        0.0519
     17 C          -4.7903   -2.0130    0.0006 C.ar    1  LIG1        0.0982
     18 N          -3.7098   -2.8179    0.0005 N.ar    1  LIG1       -0.2105
     19 H          -3.3485    1.0833   -0.0010 H       1  LIG1        0.0645
     20 O          -1.4781   -3.0287    0.0000 O.3     1  LIG1       -0.4919
     21 H          -0.6669   -2.5153   -0.0000 H       1  LIG1        0.2937
     22 N          -5.7955    0.1103    0.0006 N.pl3   1  LIG1       -0.3563
     23 H          -5.6220    0.9750   -0.4708 H       1  LIG1        0.1424
     24 H          -6.5245   -0.3859   -0.4708 H       1  LIG1        0.1424
     25 C          -6.0100   -4.0206    0.0013 C.ar    1  LIG1        0.1234
     26 C          -5.9423   -2.6153    0.0010 C.ar    1  LIG1        0.0396
     27 C          -7.1354   -1.8904    0.0013 C.ar    1  LIG1       -0.0060
     28 C          -8.3451   -2.5870    0.0019 C.ar    1  LIG1        0.1466
     29 C          -8.3099   -3.9936    0.0020 C.ar    1  LIG1        0.1522
     30 N          -7.1681   -4.7088    0.0019 N.ar    1  LIG1       -0.2308
     31 H          -7.1222   -0.7912    0.0001 H       1  LIG1        0.0662
     32 C          -4.9267   -4.7392    0.0011 C.1     1  LIG1       -0.0491
     33 C          -3.9257   -5.4031    0.0009 C.1     1  LIG1       -0.1124
     34 H          -3.0340   -5.9945    0.0007 H       1  LIG1        0.1232
     35 O          -9.4828   -1.9581    0.0021 O.3     1  LIG1       -0.5045
     36 H         -10.2011   -2.5951    0.0021 H       1  LIG1        0.2922
     37 C          -9.4097   -4.6868    0.0026 C.ar    1  LIG1        0.1976
     38 C         -10.7574   -4.3927    0.0031 C.ar    1  LIG1        0.1643
     39 C         -11.4585   -5.6598    0.0037 C.ar    1  LIG1        0.0185
     40 C         -10.4921   -6.6445    0.0034 C.ar    1  LIG1        0.0963
     41 O          -9.2208   -6.0695    0.0027 O.2     1  LIG1       -0.4575
     42 H         -10.4944   -7.9445    0.0037 H       1  LIG1        0.1031
     43 O         -11.3157   -3.2186    0.0031 O.3     1  LIG1       -0.5032
     44 H         -12.2705   -3.3178    0.0031 H       1  LIG1        0.2923
     45 H         -12.7496   -5.8113    0.0042 H       1  LIG1        0.0686
@<TRIPOS>BOND
     1    10     8    1
     2     9     8    1
     3    24    22    1
     4    23    22    1
     5    19    15    1
     6     2     8    1
     7     2     1   ar
     8     2     3   ar
     9     6     5    1
    10     4    14    1
    11     4     5   ar
    12     4     3   ar
    13    14    13   ar
    14    14    15   ar
    15    21    20    1
    16    20    13    1
    17    31    27    1
    18     5     1   ar
    19    13    18   ar
    20    15    16   ar
    21     1     7    1
    22     3    11    1
    23    18    17   ar
    24    16    17   ar
    25    16    22    1
    26    17    26    1
    27    34    33    1
    28    33    32    3
    29    26    25   ar
    30    26    27   ar
    31    11    12    1
    32    32    25    1
    33    25    30   ar
    34    27    28   ar
    35    30    29   ar
    36    28    29   ar
    37    28    35    1
    38    29    37    1
    39    35    36    1
    40    37    41   ar
    41    37    38   ar
    42    41    40   ar
    43    38    43    1
    44    38    39   ar
    45    43    44    1
    46    40    39   ar
    47    40    42    1
    48    39    45    1
