@<TRIPOS>MOLECULE
mol_data/noopt/geoms/mol2/13hf13hf13hf-13hf-.out
 46 49 0 0 0
SMALL
GASTEIGER

@<TRIPOS>ATOM
      1 C           1.1215   -0.3259    0.0002 C.ar    1  LIG1        0.0267
      2 C           0.7176    0.9721   -0.0005 C.ar    1  LIG1        0.0849
      3 C          -0.7144    0.9744    0.0003 C.ar    1  LIG1        0.1643
      4 C          -1.1226   -0.3223   -0.0003 C.ar    1  LIG1        0.1087
      5 N          -0.0018   -1.1217    0.0001 N.ar    1  LIG1       -0.3549
      6 H          -0.0034   -2.1157   -0.0003 H       1  LIG1        0.1655
      7 H           2.3167   -0.8373    0.0007 H       1  LIG1        0.0827
      8 N           1.4918    2.0164   -0.0003 N.pl3   1  LIG1       -0.3540
      9 H           2.3463    1.7980   -0.4717 H       1  LIG1        0.1425
     10 H           1.0345    2.7705   -0.4717 H       1  LIG1        0.1425
     11 O          -1.4853    2.0212    0.0010 O.3     1  LIG1       -0.5031
     12 H          -2.4040    1.7426    0.0012 H       1  LIG1        0.2923
     13 C          -2.3194   -0.8299   -0.0001 C.ar    1  LIG1        0.0916
     14 C          -3.5353   -0.2219   -0.0003 C.ar    1  LIG1        0.0945
     15 C          -4.5290   -1.2530    0.0012 C.ar    1  LIG1        0.1650
     16 C          -3.8767   -2.4457    0.0005 C.ar    1  LIG1        0.1092
     17 N          -2.5238   -2.1913    0.0002 N.ar    1  LIG1       -0.3473
     18 H          -1.8081   -2.8811   -0.0004 H       1  LIG1        0.1662
     19 N          -3.7520    1.0599   -0.0003 N.pl3   1  LIG1       -0.3534
     20 H          -3.0025    1.5247   -0.4717 H       1  LIG1        0.1425
     21 H          -4.6126    1.2525   -0.4717 H       1  LIG1        0.1425
     22 O          -5.8180   -1.0837    0.0025 O.3     1  LIG1       -0.5030
     23 H          -6.2535   -1.9392    0.0028 H       1  LIG1        0.2923
     24 C          -4.3398   -3.6604    0.0012 C.ar    1  LIG1        0.0916
     25 C          -3.6874   -4.8530    0.0012 C.ar    1  LIG1        0.0945
     26 C          -4.6811   -5.8841    0.0032 C.ar    1  LIG1        0.1650
     27 C          -5.8970   -5.2763    0.0027 C.ar    1  LIG1        0.1092
     28 N          -5.6927   -3.9149    0.0019 N.ar    1  LIG1       -0.3473
     29 H          -6.4084   -3.2251    0.0013 H       1  LIG1        0.1662
     30 N          -2.3984   -5.0223    0.0009 N.pl3   1  LIG1       -0.3534
     31 H          -2.1744   -5.8753   -0.4706 H       1  LIG1        0.1425
     32 H          -1.9617   -4.2562   -0.4706 H       1  LIG1        0.1425
     33 O          -4.4643   -7.1660    0.0049 O.3     1  LIG1       -0.5030
     34 H          -3.5186   -7.3310    0.0053 H       1  LIG1        0.2923
     35 C          -7.0939   -5.7839    0.0038 C.ar    1  LIG1        0.0912
     36 C          -7.5019   -7.0806    0.0041 C.ar    1  LIG1        0.0938
     37 C          -8.9339   -7.0784    0.0067 C.ar    1  LIG1        0.1554
     38 C          -9.3380   -5.7804    0.0061 C.ar    1  LIG1        0.0461
     39 N          -8.2146   -4.9846    0.0048 N.ar    1  LIG1       -0.3549
     40 H          -8.2131   -3.9906    0.0040 H       1  LIG1        0.1655
     41 H         -10.5331   -5.2690    0.0075 H       1  LIG1        0.0845
     42 N          -6.7310   -8.1274    0.0038 N.pl3   1  LIG1       -0.3535
     43 H          -7.1908   -8.8799   -0.4677 H       1  LIG1        0.1425
     44 H          -5.8760   -7.9116   -0.4678 H       1  LIG1        0.1425
     45 O          -9.7081   -8.1227    0.0087 O.3     1  LIG1       -0.5035
     46 H          -9.1719   -8.9191    0.0092 H       1  LIG1        0.2923
@<TRIPOS>BOND
     1    21    19    1
     2    10     8    1
     3    20    19    1
     4     9     8    1
     5    32    30    1
     6    31    30    1
     7    44    42    1
     8    43    42    1
     9     2     8    1
    10     2     1   ar
    11     2     3   ar
    12    18    17    1
    13    14    19    1
    14    14    13   ar
    15    14    15   ar
    16     6     5    1
    17     4    13    1
    18     4     5   ar
    19     4     3   ar
    20    13    17   ar
    21     5     1   ar
    22    17    16   ar
    23     1     7    1
    24     3    11    1
    25    16    15   ar
    26    16    24    1
    27    30    25    1
    28    11    12    1
    29    25    24   ar
    30    25    26   ar
    31    15    22    1
    32    24    28   ar
    33    29    28    1
    34    28    27   ar
    35    22    23    1
    36    27    26   ar
    37    27    35    1
    38    26    33    1
    39    42    36    1
    40    35    36   ar
    41    35    39   ar
    42    40    39    1
    43    36    37   ar
    44    39    38   ar
    45    33    34    1
    46    38    37   ar
    47    38    41    1
    48    37    45    1
    49    45    46    1
