@<TRIPOS>MOLECULE
mol_data/noopt/geoms/mol2/13hf4de-6af6ha-.out
 47 50 0 0 0
SMALL
GASTEIGER

@<TRIPOS>ATOM
      1 C           1.1215   -0.3259    0.0002 C.ar    1  LIG1        0.0267
      2 C           0.7176    0.9721   -0.0005 C.ar    1  LIG1        0.0848
      3 C          -0.7144    0.9744    0.0003 C.ar    1  LIG1        0.1629
      4 C          -1.1226   -0.3223   -0.0003 C.ar    1  LIG1        0.0917
      5 N          -0.0018   -1.1217    0.0001 N.ar    1  LIG1       -0.3561
      6 H          -0.0034   -2.1157   -0.0003 H       1  LIG1        0.1655
      7 H           2.3167   -0.8373    0.0007 H       1  LIG1        0.0827
      8 N           1.4918    2.0164   -0.0003 N.pl3   1  LIG1       -0.3540
      9 H           2.3463    1.7980   -0.4717 H       1  LIG1        0.1425
     10 H           1.0345    2.7705   -0.4717 H       1  LIG1        0.1425
     11 O          -1.4853    2.0212    0.0010 O.3     1  LIG1       -0.5031
     12 H          -2.4040    1.7426    0.0012 H       1  LIG1        0.2923
     13 C          -3.4433    0.0211    0.0221 C.ar    1  LIG1        0.0616
     14 C          -4.7179   -0.5778    0.0229 C.ar    1  LIG1       -0.0348
     15 C          -2.3194   -0.8299   -0.0001 C.ar    1  LIG1        0.0205
     16 C          -4.8691   -1.9625    0.0019 C.ar    1  LIG1        0.0003
     17 H          -5.5986    0.0603    0.0400 H       1  LIG1        0.0637
     18 C          -2.4698   -2.2123   -0.0211 C.ar    1  LIG1       -0.0353
     19 C          -3.7445   -2.7882   -0.0203 C.ar    1  LIG1        0.0331
     20 H          -1.5876   -2.8471   -0.0379 H       1  LIG1        0.0637
     21 N          -3.2978    2.4630    0.0596 N.1     1  LIG1       -0.1908
     22 C          -3.3660    1.3186    0.0420 C.1     1  LIG1        0.0998
     23 C          -3.8789   -4.0811   -0.0398 C.1     1  LIG1       -0.0690
     24 C          -4.0032   -5.2757   -0.0578 C.1     1  LIG1       -0.1139
     25 H          -4.1138   -6.3398   -0.0738 H       1  LIG1        0.1232
     26 C          -6.2281   -3.8786    0.0041 C.ar    1  LIG1        0.0362
     27 C          -6.0610   -2.4817    0.0032 C.ar    1  LIG1        0.0049
     28 C          -7.1997   -1.6740    0.0041 C.ar    1  LIG1       -0.0088
     29 C          -8.4556   -2.2832    0.0056 C.ar    1  LIG1        0.1434
     30 C          -8.5203   -3.6887    0.0061 C.ar    1  LIG1        0.1155
     31 N          -7.4320   -4.4831    0.0055 N.ar    1  LIG1       -0.2506
     32 H          -7.1086   -0.5786    0.0024 H       1  LIG1        0.0661
     33 H          -5.1984   -4.6722    0.0034 H       1  LIG1        0.0836
     34 O          -9.5460   -1.5753    0.0062 O.3     1  LIG1       -0.5046
     35 H         -10.3076   -2.1598    0.0064 H       1  LIG1        0.2922
     36 C          -9.7205   -5.7079   -0.0126 C.ar    1  LIG1        0.1255
     37 C          -9.6664   -4.3022    0.0076 C.ar    1  LIG1        0.0434
     38 C         -10.8663   -3.5890    0.0294 C.ar    1  LIG1       -0.0477
     39 C         -12.0691   -4.2974    0.0301 C.ar    1  LIG1       -0.0428
     40 C         -12.0204   -5.7034    0.0088 C.ar    1  LIG1        0.0297
     41 N         -10.8719   -6.4074   -0.0122 N.ar    1  LIG1       -0.2401
     42 H         -10.8637   -2.4899    0.0446 H       1  LIG1        0.0626
     43 H         -13.1134   -6.4072    0.0086 H       1  LIG1        0.0830
     44 N          -8.6303   -6.4158   -0.0332 N.pl3   1  LIG1       -0.3426
     45 H          -8.8017   -7.2780   -0.5099 H       1  LIG1        0.1437
     46 H          -7.9124   -5.9085   -0.5099 H       1  LIG1        0.1437
     47 H         -13.2129   -3.6798    0.0498 H       1  LIG1        0.0633
@<TRIPOS>BOND
     1    46    44    1
     2    45    44    1
     3    10     8    1
     4     9     8    1
     5    25    24    1
     6    24    23    3
     7    23    19    1
     8    20    18    1
     9    44    36    1
    10    18    19   ar
    11    18    15   ar
    12    19    16   ar
    13    36    41   ar
    14    36    37   ar
    15    41    40   ar
    16     2     8    1
    17     2     1   ar
    18     2     3   ar
    19     6     5    1
    20     4    15    1
    21     4     5   ar
    22     4     3   ar
    23    15    13   ar
    24     5     1   ar
    25     1     7    1
    26     3    11    1
    27    11    12    1
    28    16    27    1
    29    16    14   ar
    30    32    28    1
    31    27    26   ar
    32    27    28   ar
    33    33    26    1
    34    26    31   ar
    35    28    29   ar
    36    31    30   ar
    37    29    30   ar
    38    29    34    1
    39    30    37    1
    40    34    35    1
    41    37    38   ar
    42    43    40    1
    43    40    39   ar
    44    13    14   ar
    45    13    22    1
    46    14    17    1
    47    38    39   ar
    48    38    42    1
    49    39    47    1
    50    22    21    3
