@<TRIPOS>MOLECULE
mol_data/noopt/geoms/mol2/13hf6ff12de-4ia.out
 47 50 0 0 0
SMALL
GASTEIGER

@<TRIPOS>ATOM
      1 C           1.1215   -0.3259    0.0002 C.ar    1  LIG1        0.0267
      2 C           0.7176    0.9721   -0.0005 C.ar    1  LIG1        0.0848
      3 C          -0.7144    0.9744    0.0003 C.ar    1  LIG1        0.1630
      4 C          -1.1226   -0.3223   -0.0003 C.ar    1  LIG1        0.0956
      5 N          -0.0018   -1.1217    0.0001 N.ar    1  LIG1       -0.3560
      6 H          -0.0034   -2.1157   -0.0003 H       1  LIG1        0.1655
      7 H           2.3167   -0.8373    0.0007 H       1  LIG1        0.0827
      8 N           1.4918    2.0164   -0.0003 N.pl3   1  LIG1       -0.3540
      9 H           2.3463    1.7980   -0.4717 H       1  LIG1        0.1425
     10 H           1.0345    2.7705   -0.4717 H       1  LIG1        0.1425
     11 O          -1.4853    2.0212    0.0010 O.3     1  LIG1       -0.5031
     12 H          -2.4040    1.7426    0.0012 H       1  LIG1        0.2923
     13 C          -2.5001   -2.2252    0.0002 C.ar    1  LIG1        0.2226
     14 C          -2.3194   -0.8299   -0.0001 C.ar    1  LIG1        0.0667
     15 C          -3.4502   -0.0112    0.0002 C.ar    1  LIG1       -0.0036
     16 C          -4.7120   -0.6082    0.0005 C.ar    1  LIG1        0.1467
     17 C          -4.7903   -2.0130    0.0006 C.ar    1  LIG1        0.1523
     18 N          -3.7098   -2.8179    0.0005 N.ar    1  LIG1       -0.2056
     19 H          -3.3485    1.0833   -0.0010 H       1  LIG1        0.0663
     20 O          -1.4781   -3.0287    0.0000 O.3     1  LIG1       -0.4919
     21 H          -0.6669   -2.5153   -0.0000 H       1  LIG1        0.2937
     22 O          -5.7955    0.1103    0.0006 O.3     1  LIG1       -0.5045
     23 H          -6.5627   -0.4668    0.0006 H       1  LIG1        0.2922
     24 C          -5.9423   -2.6153    0.0010 C.ar    1  LIG1        0.1760
     25 C          -7.2620   -2.2136    0.0013 C.ar    1  LIG1        0.1150
     26 C          -8.0629   -3.4201    0.0016 C.ar    1  LIG1        0.0884
     27 C          -7.1789   -4.4795    0.0015 C.ar    1  LIG1        0.1526
     28 O          -5.8654   -4.0088    0.0009 O.2     1  LIG1       -0.4506
     29 N          -8.1312    0.0734    0.0014 N.1     1  LIG1       -0.1907
     30 C          -7.7239   -0.9984    0.0013 C.1     1  LIG1        0.1043
     31 C          -9.3620   -3.4671    0.0020 C.1     1  LIG1       -0.0645
     32 C         -10.5624   -3.5106    0.0023 C.1     1  LIG1       -0.1138
     33 H         -11.6317   -3.5493    0.0026 H       1  LIG1        0.1232
     34 C          -8.5620   -6.3745    0.0025 C.ar    1  LIG1       -0.0398
     35 C          -8.6244   -7.7814    0.0043 C.ar    1  LIG1       -0.0582
     36 C          -7.2859   -5.7750    0.0017 C.ar    1  LIG1        0.0214
     37 C          -7.4686   -8.5591    0.0045 C.ar    1  LIG1       -0.0615
     38 H          -9.5990   -8.2645    0.0052 H       1  LIG1        0.0620
     39 C          -6.1318   -6.5509    0.0019 C.ar    1  LIG1       -0.0508
     40 C          -6.2145   -7.9472    0.0032 C.ar    1  LIG1       -0.0611
     41 H          -5.1594   -6.0650    0.0013 H       1  LIG1        0.0625
     42 H          -7.5630   -9.8557    0.0060 H       1  LIG1        0.0618
     43 C          -9.6753   -5.7026    0.0021 C.3     1  LIG1       -0.0390
     44 H         -10.4322   -6.2662    0.5064 H       1  LIG1        0.0278
     45 H          -9.9805   -5.5186   -1.0068 H       1  LIG1        0.0278
     46 H          -9.5294   -4.7703    0.5064 H       1  LIG1        0.0278
     47 H          -5.1322   -8.6674    0.0036 H       1  LIG1        0.0618
@<TRIPOS>BOND
     1    45    43    1
     2    10     8    1
     3     9     8    1
     4    19    15    1
     5     2     8    1
     6     2     1   ar
     7     2     3   ar
     8     4    14    1
     9     4     5   ar
    10     4     3   ar
    11     6     5    1
    12    14    13   ar
    13    14    15   ar
    14    21    20    1
    15    20    13    1
    16     5     1   ar
    17    13    18   ar
    18    15    16   ar
    19     1     7    1
    20     3    11    1
    21    18    17   ar
    22    16    17   ar
    23    16    22    1
    24    17    24    1
    25    22    23    1
    26    28    24   ar
    27    28    27   ar
    28    24    25   ar
    29    11    12    1
    30    25    30    1
    31    25    26   ar
    32    30    29    3
    33    41    39    1
    34    27    26   ar
    35    27    36    1
    36    26    31    1
    37    36    39   ar
    38    36    34   ar
    39    39    40   ar
    40    31    32    3
    41    43    34    1
    42    43    46    1
    43    43    44    1
    44    32    33    1
    45    34    35   ar
    46    40    47    1
    47    40    37   ar
    48    35    37   ar
    49    35    38    1
    50    37    42    1
