@<TRIPOS>MOLECULE
mol_data/noopt/geoms/mol2/13hg.out
 13 13 0 0 0
SMALL
GASTEIGER

@<TRIPOS>ATOM
      1 C           1.1215   -0.3259    0.0002 C.ar    1  LIG1        0.0237
      2 C           0.7176    0.9721   -0.0005 C.ar    1  LIG1        0.0554
      3 C          -0.7144    0.9744    0.0003 C.ar    1  LIG1        0.0428
      4 C          -1.1226   -0.3223   -0.0003 C.ar    1  LIG1        0.0168
      5 N          -0.0018   -1.1217    0.0001 N.ar    1  LIG1       -0.3645
      6 H          -0.0034   -2.1157   -0.0003 H       1  LIG1        0.1649
      7 H          -2.3194   -0.8299   -0.0001 H       1  LIG1        0.0818
      8 H           2.3167   -0.8373    0.0007 H       1  LIG1        0.0826
      9 N           1.4918    2.0164   -0.0003 N.pl3   1  LIG1       -0.3560
     10 H           2.3463    1.7980   -0.4717 H       1  LIG1        0.1424
     11 H           1.0345    2.7705   -0.4717 H       1  LIG1        0.1424
     12 S          -1.4853    2.0211    0.0010 S.3     1  LIG1       -0.1394
     13 H          -2.7389    1.6410    0.0012 H       1  LIG1        0.1072
@<TRIPOS>BOND
     1    11     9    1
     2    10     9    1
     3     2     9    1
     4     2     1   ar
     5     2     3   ar
     6     4     7    1
     7     4     5   ar
     8     4     3   ar
     9     6     5    1
    10     5     1   ar
    11     1     8    1
    12     3    12    1
    13    12    13    1
