@<TRIPOS>MOLECULE
mol_data/noopt/geoms/mol2/13hg13hg-13hg13hg-.out
 46 43 0 0 0
SMALL
GASTEIGER

@<TRIPOS>ATOM
      1 C           1.1215   -0.3259    0.0002 C.2     1  LIG1        0.0158
      2 C           0.7176    0.9721   -0.0005 C.2     1  LIG1        0.0548
      3 C          -0.7144    0.9744    0.0003 C.2     1  LIG1        0.0634
      4 C          -1.1226   -0.3223   -0.0003 C.2     1  LIG1        0.0654
      5 N          -0.0018   -1.1217    0.0001 N.pl3   1  LIG1       -0.3168
      6 H          -0.0034   -2.1157   -0.0003 H       1  LIG1        0.1517
      7 H           2.3167   -0.8373    0.0007 H       1  LIG1        0.0800
      8 N           1.4918    2.0164   -0.0003 N.pl3   1  LIG1       -0.3561
      9 H           2.3463    1.7980   -0.4717 H       1  LIG1        0.1424
     10 H           1.0345    2.7705   -0.4717 H       1  LIG1        0.1424
     11 S          -1.4853    2.0211    0.0010 S.2     1  LIG1       -0.0481
     12 H          -2.7389    1.6410    0.0012 H       2  UNK2        0.0000
     13 C          -2.3194   -0.8299   -0.0001 C.2     1  LIG1        0.0445
     14 C          -3.5353   -0.2219   -0.0003 C.3     1  LIG1        0.0771
     15 C          -4.5290   -1.2530    0.0012 C.2     1  LIG1        0.0334
     16 C          -3.8767   -2.4457    0.0005 C.2     1  LIG1        0.0604
     17 N          -2.5238   -2.1913    0.0002 N.pl3   1  LIG1       -0.3137
     18 H          -1.8081   -2.8811   -0.0004 H       1  LIG1        0.1520
     19 N          -3.7520    1.0599   -0.0003 N.3     3  LIG3       -0.2731
     20 H          -3.0025    1.5247   -0.4717 H       1  LIG1        0.1366
     21 H          -4.6126    1.2525   -0.4717 H       1  LIG1        0.1366
     22 S          -5.8179   -1.0837    0.0025 S.2     1  LIG1       -0.0537
     23 H          -6.4122   -2.2511    0.0029 H       4  UNK4        0.0000
     24 C          -4.3398   -3.6604    0.0012 C.2     1  LIG1        0.0406
     25 C          -5.6206   -4.1160    0.0013 C.3     1  LIG1        0.0731
     26 C          -5.5655   -5.5470    0.0033 C.2     1  LIG1        0.0203
     27 C          -4.2535   -5.9029    0.0026 C.3     1  LIG1        0.1333
     28 N          -3.4996   -4.7510    0.0018 N.pl3   1  LIG1       -0.3280
     29 H          -2.5064   -4.7127    0.0010 H       1  LIG1        0.1472
     30 N          -6.6951   -3.3843    0.0012 N.3     5  LIG5       -0.2731
     31 H          -6.5110   -2.5218   -0.4702 H       2  UNK2        0.1366
     32 H          -7.4301   -3.8715   -0.4702 H       2  UNK2        0.1366
     33 S          -6.5805   -6.3592    0.0050 S.2     1  LIG1       -0.0576
     34 H          -6.1504   -7.5965    0.0056 H       6  UNK6        0.0000
     35 C          -3.6983   -7.0784    0.0036 C.ar    1  LIG1        0.0563
     36 C          -4.2571   -8.3176    0.0039 C.ar    1  LIG1        0.0212
     37 C          -3.1870   -9.2693    0.0063 C.ar    1  LIG1        0.0302
     38 C          -2.0214   -8.5697    0.0055 C.ar    1  LIG1        0.0158
     39 N          -2.3298   -7.2280    0.0043 N.ar    1  LIG1       -0.3609
     40 H          -1.6693   -6.4852    0.0035 H       1  LIG1        0.1651
     41 H          -0.7891   -8.9837    0.0068 H       1  LIG1        0.0818
     42 N          -5.5292   -8.5856    0.0038 N.3     7  LIG7       -0.2731
     43 H          -6.0236   -7.8553   -0.4677 H       3  LIG3        0.1366
     44 H          -5.6870   -9.4532   -0.4677 H       3  LIG3        0.1366
     45 S          -3.3045  -10.5639    0.0083 S.3     1  LIG1       -0.1406
     46 H          -2.1142  -11.1110    0.0090 H       1  LIG1        0.1072
@<TRIPOS>BOND
     1    21    19    1
     2    10     8    1
     3    20    19    1
     4     9     8    1
     5    32    30    1
     6    31    30    1
     7    44    42    1
     8    43    42    1
     9     2     8    1
    10     2     1    2
    11     2     3    1
    12    18    17    1
    13    14    13    1
    14    14    15    1
    15     6     5    1
    16     4    13    2
    17     4     5    1
    18     4     3    1
    19    13    17    1
    20     5     1    1
    21    17    16    1
    22     1     7    1
    23     3    11    2
    24    16    15    1
    25    16    24    2
    26    29    28    1
    27    15    22    2
    28    24    25    1
    29    24    28    1
    30    25    26    1
    31    28    27    1
    32    27    26    1
    33    27    35    1
    34    26    33    2
    35    40    39    1
    36    35    36   ar
    37    35    39   ar
    38    36    37   ar
    39    39    38   ar
    40    38    37   ar
    41    38    41    1
    42    37    45    1
    43    45    46    1
