@<TRIPOS>MOLECULE
mol_data/noopt/geoms/mol2/13hg13hg13hg-13hg-.out
 46 43 0 0 0
SMALL
GASTEIGER

@<TRIPOS>ATOM
      1 C           1.1215   -0.3259    0.0002 C.2     1  LIG1        0.0158
      2 C           0.7176    0.9721   -0.0005 C.2     1  LIG1        0.0548
      3 C          -0.7144    0.9744    0.0003 C.2     1  LIG1        0.0634
      4 C          -1.1226   -0.3223   -0.0003 C.2     1  LIG1        0.0654
      5 N          -0.0018   -1.1217    0.0001 N.pl3   1  LIG1       -0.3168
      6 H          -0.0034   -2.1157   -0.0003 H       1  LIG1        0.1517
      7 H           2.3167   -0.8373    0.0007 H       1  LIG1        0.0800
      8 N           1.4918    2.0164   -0.0003 N.pl3   1  LIG1       -0.3561
      9 H           2.3463    1.7980   -0.4717 H       1  LIG1        0.1424
     10 H           1.0345    2.7705   -0.4717 H       1  LIG1        0.1424
     11 S          -1.4853    2.0211    0.0010 S.2     1  LIG1       -0.0481
     12 H          -2.7389    1.6410    0.0012 H       2  UNK2        0.0000
     13 C          -2.3194   -0.8299   -0.0001 C.2     1  LIG1        0.0445
     14 C          -3.5352   -0.2220    0.0163 C.3     1  LIG1        0.0771
     15 C          -4.5290   -1.2531    0.0088 C.2     1  LIG1        0.0334
     16 C          -3.8768   -2.4456   -0.0136 C.2     1  LIG1        0.0604
     17 N          -2.5238   -2.1911   -0.0187 N.pl3   1  LIG1       -0.3137
     18 H          -1.8082   -2.8808   -0.0339 H       1  LIG1        0.1520
     19 N          -3.7519    1.0596    0.0366 N.3     3  LIG3       -0.2731
     20 H          -3.0036    1.5316   -0.4295 H       1  LIG1        0.1366
     21 H          -4.6137    1.2594   -0.4295 H       1  LIG1        0.1366
     22 S          -5.8178   -1.0839    0.0207 S.2     1  LIG1       -0.0537
     23 H          -6.4121   -2.2513    0.0247 H       4  UNK4        0.0000
     24 C          -4.3399   -3.6602   -0.0280 C.2     1  LIG1        0.0406
     25 C          -5.6206   -4.1159   -0.0215 C.3     1  LIG1        0.0731
     26 C          -5.5656   -5.5467   -0.0437 C.2     1  LIG1        0.0203
     27 C          -4.2537   -5.9024   -0.0646 C.3     1  LIG1        0.1333
     28 N          -3.4998   -4.7505   -0.0546 N.pl3   1  LIG1       -0.3280
     29 H          -2.5066   -4.7122   -0.0655 H       1  LIG1        0.1472
     30 N          -6.6950   -3.3844    0.0022 N.3     5  LIG5       -0.2731
     31 H          -6.5181   -2.5171   -0.4630 H       2  UNK2        0.1366
     32 H          -7.4371   -3.8669   -0.4630 H       2  UNK2        0.1366
     33 S          -6.5806   -6.3589   -0.0444 S.2     1  LIG1       -0.0576
     34 H          -6.1504   -7.5963   -0.0446 H       6  UNK6        0.0000
     35 C          -3.6986   -7.0777   -0.0891 C.ar    1  LIG1        0.0563
     36 C          -4.2575   -8.3168   -0.1060 C.ar    1  LIG1        0.0212
     37 C          -3.1875   -9.2682   -0.1295 C.ar    1  LIG1        0.0302
     38 C          -2.0219   -8.5687   -0.1276 C.ar    1  LIG1        0.0158
     39 N          -2.3302   -7.2272   -0.1024 N.ar    1  LIG1       -0.3609
     40 H          -1.6696   -6.4845   -0.0957 H       1  LIG1        0.1651
     41 H          -0.7896   -8.9826   -0.1440 H       1  LIG1        0.0818
     42 N          -5.5296   -8.5848   -0.1003 N.3     7  LIG7       -0.2731
     43 H          -6.0261   -7.8549   -0.5702 H       3  LIG3        0.1366
     44 H          -5.6895   -9.4528   -0.5703 H       3  LIG3        0.1366
     45 S          -3.3051  -10.5627   -0.1495 S.3     1  LIG1       -0.1406
     46 H          -2.1148  -11.1098   -0.1562 H       1  LIG1        0.1072
@<TRIPOS>BOND
     1    44    42    1
     2    43    42    1
     3    10     8    1
     4     9     8    1
     5    32    30    1
     6    31    30    1
     7    21    19    1
     8    20    19    1
     9    46    45    1
    10    45    37    1
    11    41    38    1
    12    37    38   ar
    13    37    36   ar
    14    38    39   ar
    15    36    35   ar
    16    39    40    1
    17    39    35   ar
    18    35    27    1
    19    29    28    1
    20    27    28    1
    21    27    26    1
    22    28    24    1
    23    33    26    2
    24    26    25    1
    25    18    17    1
    26    24    25    1
    27    24    16    2
    28    17    16    1
    29    17    13    1
    30    16    15    1
    31     2     8    1
    32     2     1    2
    33     2     3    1
    34     6     5    1
    35     4    13    2
    36     4     5    1
    37     4     3    1
    38    13    14    1
    39     5     1    1
    40     1     7    1
    41     3    11    2
    42    15    14    1
    43    15    22    2
