@<TRIPOS>MOLECULE
mol_data/noopt/geoms/mol2/13hg13hg13hg.out
 35 33 0 0 0
SMALL
GASTEIGER

@<TRIPOS>ATOM
      1 C           1.1215   -0.3259    0.0002 C.2     1  LIG1        0.0158
      2 C           0.7176    0.9721   -0.0005 C.2     1  LIG1        0.0548
      3 C          -0.7144    0.9744    0.0003 C.2     1  LIG1        0.0634
      4 C          -1.1226   -0.3223   -0.0003 C.2     1  LIG1        0.0651
      5 N          -0.0018   -1.1217    0.0001 N.pl3   1  LIG1       -0.3168
      6 H          -0.0034   -2.1157   -0.0003 H       1  LIG1        0.1517
      7 H           2.3167   -0.8373    0.0007 H       1  LIG1        0.0800
      8 N           1.4918    2.0164   -0.0003 N.pl3   1  LIG1       -0.3561
      9 H           2.3463    1.7980   -0.4717 H       1  LIG1        0.1424
     10 H           1.0345    2.7705   -0.4717 H       1  LIG1        0.1424
     11 S          -1.4853    2.0211    0.0010 S.2     1  LIG1       -0.0481
     12 H          -2.7389    1.6410    0.0012 H       2  UNK2        0.0000
     13 C          -2.3194   -0.8299   -0.0001 C.2     1  LIG1        0.0409
     14 C          -3.5352   -0.2220    0.0163 C.3     1  LIG1        0.0731
     15 C          -4.5290   -1.2531    0.0088 C.2     1  LIG1        0.0203
     16 C          -3.8768   -2.4456   -0.0136 C.3     1  LIG1        0.1333
     17 N          -2.5238   -2.1911   -0.0187 N.pl3   1  LIG1       -0.3280
     18 H          -1.8082   -2.8808   -0.0339 H       1  LIG1        0.1472
     19 N          -3.7519    1.0596    0.0366 N.3     3  LIG3       -0.2731
     20 H          -3.0036    1.5316   -0.4295 H       1  LIG1        0.1366
     21 H          -4.6137    1.2594   -0.4295 H       1  LIG1        0.1366
     22 S          -5.8178   -1.0839    0.0207 S.2     1  LIG1       -0.0576
     23 H          -6.4121   -2.2513    0.0247 H       4  UNK4        0.0000
     24 C          -4.3399   -3.6602   -0.0280 C.ar    1  LIG1        0.0563
     25 C          -5.6207   -4.1157   -0.0381 C.ar    1  LIG1        0.0212
     26 C          -5.5656   -5.5466   -0.0513 C.ar    1  LIG1        0.0302
     27 C          -4.2537   -5.9026   -0.0505 C.ar    1  LIG1        0.0158
     28 N          -3.4998   -4.7508   -0.0358 N.ar    1  LIG1       -0.3609
     29 H          -2.5065   -4.7126   -0.0320 H       1  LIG1        0.1651
     30 H          -3.6986   -7.0781   -0.0599 H       1  LIG1        0.0818
     31 N          -6.6952   -3.3839   -0.0347 N.3     5  LIG5       -0.2731
     32 H          -6.5120   -2.5207   -0.5052 H       2  UNK2        0.1366
     33 H          -7.4313   -3.8704   -0.5052 H       2  UNK2        0.1366
     34 S          -6.5807   -6.3587   -0.0626 S.3     1  LIG1       -0.1406
     35 H          -6.1507   -7.5961   -0.0664 H       1  LIG1        0.1072
@<TRIPOS>BOND
     1    33    31    1
     2    32    31    1
     3    10     8    1
     4     9     8    1
     5    21    19    1
     6    20    19    1
     7    35    34    1
     8    34    26    1
     9    30    27    1
    10    26    27   ar
    11    26    25   ar
    12    27    28   ar
    13    25    24   ar
    14    28    29    1
    15    28    24   ar
    16    18    17    1
    17    24    16    1
    18    17    16    1
    19    17    13    1
    20    16    15    1
    21     2     8    1
    22     2     1    2
    23     2     3    1
    24     6     5    1
    25     4    13    2
    26     4     5    1
    27     4     3    1
    28    13    14    1
    29     5     1    1
    30     1     7    1
    31     3    11    2
    32    15    14    1
    33    15    22    2
