@<TRIPOS>MOLECULE
mol_data/noopt/geoms/mol2/13hg13hg-13hg-.out
 35 33 0 0 0
SMALL
GASTEIGER

@<TRIPOS>ATOM
      1 C           1.1215   -0.3259    0.0002 C.2     1  LIG1        0.0158
      2 C           0.7176    0.9721   -0.0005 C.2     1  LIG1        0.0548
      3 C          -0.7144    0.9744    0.0003 C.2     1  LIG1        0.0634
      4 C          -1.1226   -0.3223   -0.0003 C.2     1  LIG1        0.0651
      5 N          -0.0018   -1.1217    0.0001 N.pl3   1  LIG1       -0.3168
      6 H          -0.0034   -2.1157   -0.0003 H       1  LIG1        0.1517
      7 H           2.3167   -0.8373    0.0007 H       1  LIG1        0.0800
      8 N           1.4918    2.0164   -0.0003 N.pl3   1  LIG1       -0.3561
      9 H           2.3463    1.7980   -0.4717 H       1  LIG1        0.1424
     10 H           1.0345    2.7705   -0.4717 H       1  LIG1        0.1424
     11 S          -1.4853    2.0211    0.0010 S.2     1  LIG1       -0.0481
     12 H          -2.7389    1.6410    0.0012 H       2  UNK2        0.0000
     13 C          -2.3194   -0.8299   -0.0001 C.2     1  LIG1        0.0409
     14 C          -3.5353   -0.2219   -0.0003 C.3     1  LIG1        0.0731
     15 C          -4.5290   -1.2530    0.0012 C.2     1  LIG1        0.0203
     16 C          -3.8767   -2.4457    0.0005 C.3     1  LIG1        0.1333
     17 N          -2.5238   -2.1913    0.0002 N.pl3   1  LIG1       -0.3280
     18 H          -1.8081   -2.8811   -0.0004 H       1  LIG1        0.1472
     19 N          -3.7520    1.0599   -0.0003 N.3     3  LIG3       -0.2731
     20 H          -3.0025    1.5247   -0.4717 H       1  LIG1        0.1366
     21 H          -4.6126    1.2525   -0.4717 H       1  LIG1        0.1366
     22 S          -5.8179   -1.0837    0.0025 S.2     1  LIG1       -0.0576
     23 H          -6.4122   -2.2511    0.0029 H       4  UNK4        0.0000
     24 C          -4.3398   -3.6604    0.0012 C.ar    1  LIG1        0.0563
     25 C          -5.6205   -4.1161    0.0179 C.ar    1  LIG1        0.0212
     26 C          -5.5654   -5.5470    0.0109 C.ar    1  LIG1        0.0302
     27 C          -4.2536   -5.9029   -0.0115 C.ar    1  LIG1        0.0158
     28 N          -3.4998   -4.7509   -0.0171 N.ar    1  LIG1       -0.3609
     29 H          -2.5066   -4.7126   -0.0325 H       1  LIG1        0.1651
     30 H          -3.6985   -7.0783   -0.0256 H       1  LIG1        0.0818
     31 N          -6.6948   -3.3844    0.0381 N.3     5  LIG5       -0.2731
     32 H          -6.5167   -2.5178   -0.4280 H       2  UNK2        0.1366
     33 H          -7.4359   -3.8674   -0.4281 H       2  UNK2        0.1366
     34 S          -6.5803   -6.3592    0.0232 S.3     1  LIG1       -0.1406
     35 H          -6.1501   -7.5966    0.0273 H       1  LIG1        0.1072
@<TRIPOS>BOND
     1    21    19    1
     2    10     8    1
     3    20    19    1
     4     9     8    1
     5    33    31    1
     6    32    31    1
     7    29    28    1
     8    30    27    1
     9    28    27   ar
    10    28    24   ar
    11    27    26   ar
    12     2     8    1
    13     2     1    2
    14     2     3    1
    15    18    17    1
    16    14    13    1
    17    14    15    1
    18     6     5    1
    19     4    13    2
    20     4     5    1
    21     4     3    1
    22    13    17    1
    23     5     1    1
    24    17    16    1
    25     1     7    1
    26     3    11    2
    27    16    15    1
    28    16    24    1
    29    15    22    2
    30    24    25   ar
    31    26    25   ar
    32    26    34    1
    33    34    35    1
