@<TRIPOS>MOLECULE
mol_data/noopt/geoms/mol2/13hg13hg-.out
 24 23 0 0 0
SMALL
GASTEIGER

@<TRIPOS>ATOM
      1 C           1.1215   -0.3259    0.0002 C.2     1  LIG1        0.0123
      2 C           0.7176    0.9721   -0.0005 C.2     1  LIG1        0.0511
      3 C          -0.7144    0.9744    0.0003 C.2     1  LIG1        0.0502
      4 C          -1.1226   -0.3223   -0.0003 C.3     1  LIG1        0.1379
      5 N          -0.0018   -1.1217    0.0001 N.pl3   1  LIG1       -0.3311
      6 H          -0.0034   -2.1157   -0.0003 H       1  LIG1        0.1469
      7 H           2.3167   -0.8373    0.0007 H       1  LIG1        0.0797
      8 N           1.4918    2.0164   -0.0003 N.pl3   1  LIG1       -0.3563
      9 H           2.3463    1.7980   -0.4717 H       1  LIG1        0.1424
     10 H           1.0345    2.7705   -0.4717 H       1  LIG1        0.1424
     11 S          -1.4853    2.0211    0.0010 S.2     1  LIG1       -0.0520
     12 H          -2.7389    1.6410    0.0012 H       2  UNK2        0.0000
     13 C          -2.3194   -0.8299   -0.0001 C.ar    1  LIG1        0.0566
     14 C          -3.5353   -0.2219   -0.0003 C.ar    1  LIG1        0.0212
     15 C          -4.5290   -1.2530    0.0012 C.ar    1  LIG1        0.0302
     16 C          -3.8767   -2.4457    0.0005 C.ar    1  LIG1        0.0158
     17 N          -2.5238   -2.1913    0.0002 N.ar    1  LIG1       -0.3609
     18 H          -1.8081   -2.8811   -0.0004 H       1  LIG1        0.1651
     19 H          -4.3398   -3.6604    0.0012 H       1  LIG1        0.0818
     20 N          -3.7520    1.0599   -0.0003 N.3     3  LIG3       -0.2731
     21 H          -3.0025    1.5247   -0.4717 H       1  LIG1        0.1366
     22 H          -4.6126    1.2525   -0.4717 H       1  LIG1        0.1366
     23 S          -5.8179   -1.0837    0.0025 S.3     1  LIG1       -0.1406
     24 H          -6.4122   -2.2511    0.0029 H       1  LIG1        0.1072
@<TRIPOS>BOND
     1    22    20    1
     2    10     8    1
     3    21    20    1
     4     9     8    1
     5     2     8    1
     6     2     1    2
     7     2     3    1
     8    18    17    1
     9    14    13   ar
    10    14    15   ar
    11     4    13    1
    12     4     5    1
    13     4     3    1
    14     6     5    1
    15    13    17   ar
    16     5     1    1
    17    17    16   ar
    18     1     7    1
    19     3    11    2
    20    16    15   ar
    21    16    19    1
    22    15    23    1
    23    23    24    1
