@<TRIPOS>MOLECULE
mol_data/noopt/geoms/mol2/13hh12al-13ea12le.out
 48 51 0 0 0
SMALL
GASTEIGER

@<TRIPOS>ATOM
      1 C           1.1215   -0.3259    0.0002 C.ar    1  LIG1        0.0249
      2 C           0.7176    0.9721   -0.0005 C.ar    1  LIG1        0.0638
      3 C          -0.7144    0.9744    0.0003 C.ar    1  LIG1        0.0742
      4 C          -1.1226   -0.3223   -0.0003 C.ar    1  LIG1        0.1050
      5 N          -0.0018   -1.1217    0.0001 N.ar    1  LIG1       -0.3551
      6 H          -0.0034   -2.1157   -0.0003 H       1  LIG1        0.1655
      7 H           2.3167   -0.8373    0.0007 H       1  LIG1        0.0826
      8 N           1.4918    2.0164   -0.0003 N.pl3   1  LIG1       -0.3554
      9 H           2.3463    1.7980   -0.4717 H       1  LIG1        0.1424
     10 H           1.0345    2.7705   -0.4717 H       1  LIG1        0.1424
     11 N          -1.4853    2.0212    0.0010 N.pl3   1  LIG1       -0.3548
     12 H          -1.0256    2.7740   -0.4702 H       1  LIG1        0.1424
     13 H          -2.3405    1.8056   -0.4703 H       1  LIG1        0.1424
     14 C          -2.3194   -0.8299   -0.0001 C.ar    1  LIG1        0.1573
     15 C          -3.6025   -0.3232    0.0001 C.ar    1  LIG1        0.0282
     16 C          -4.4979   -1.4613    0.0002 C.ar    1  LIG1        0.1678
     17 C          -3.7022   -2.5884    0.0001 C.ar    1  LIG1        0.1944
     18 O          -2.3550   -2.2250   -0.0002 O.2     1  LIG1       -0.4480
     19 H          -3.9649    0.9252    0.0001 H       1  LIG1        0.0693
     20 O          -5.7966   -1.4035    0.0004 O.3     1  LIG1       -0.4912
     21 C          -6.2135   -0.0356    0.0004 C.3     1  LIG1        0.0790
     22 H          -7.2825    0.0115    0.0004 H       1  LIG1        0.0660
     23 H          -5.8350    0.4526    0.8741 H       1  LIG1        0.0660
     24 H          -5.8350    0.4526   -0.8732 H       1  LIG1        0.0660
     25 C          -3.9132   -3.8712    0.0002 C.ar    1  LIG1        0.1019
     26 C          -5.0771   -4.5735   -0.0001 C.ar    1  LIG1        0.0537
     27 C          -4.7371   -5.9646    0.0013 C.ar    1  LIG1       -0.0171
     28 C          -3.3805   -6.0512    0.0007 C.ar    1  LIG1        0.0875
     29 N          -2.8720   -4.7718    0.0004 N.ar    1  LIG1       -0.3482
     30 H          -1.9064   -4.5359   -0.0001 H       1  LIG1        0.1661
     31 C          -6.2761   -4.0713   -0.0000 C.1     1  LIG1       -0.0674
     32 C          -7.3840   -3.6072    0.0000 C.1     1  LIG1       -0.1138
     33 H          -8.3710   -3.1938    0.0001 H       1  LIG1        0.1232
     34 H          -5.5694   -6.9633    0.0026 H       1  LIG1        0.0652
     35 C          -2.6016   -7.0920    0.0013 C.ar    1  LIG1        0.1935
     36 C          -2.7870   -8.4589    0.0166 C.ar    1  LIG1        0.1825
     37 C          -1.4680   -9.0565    0.0065 C.ar    1  LIG1        0.1047
     38 C          -0.5637   -8.0146   -0.0144 C.ar    1  LIG1        0.1117
     39 O          -1.2385   -6.7933   -0.0181 O.2     1  LIG1       -0.4564
     40 H           0.7322   -7.9131   -0.0308 H       1  LIG1        0.1043
     41 O          -3.9126   -9.1091    0.0363 O.3     1  LIG1       -0.4901
     42 C          -5.0000   -8.1805    0.0435 C.3     1  LIG1        0.0790
     43 H          -5.9263   -8.7160    0.0596 H       1  LIG1        0.0660
     44 H          -4.9324   -7.5587    0.9117 H       1  LIG1        0.0660
     45 H          -4.9552   -7.5719   -0.8354 H       1  LIG1        0.0660
     46 C          -1.2137  -10.3314    0.0156 C.1     1  LIG1       -0.0628
     47 C          -0.9788  -11.5093    0.0240 C.1     1  LIG1       -0.1137
     48 H          -0.7695  -12.5586    0.0316 H       1  LIG1        0.1232
@<TRIPOS>BOND
     1    24    21    1
     2    45    42    1
     3    10     8    1
     4     9     8    1
     5    13    11    1
     6    12    11    1
     7    40    38    1
     8    39    38   ar
     9    39    35   ar
    10    38    37   ar
    11     2     8    1
    12     2     1   ar
    13     2     3   ar
    14     4    14    1
    15     4     5   ar
    16     4     3   ar
    17     6     5    1
    18    18    14   ar
    19    18    17   ar
    20    30    29    1
    21    14    15   ar
    22    26    31    1
    23    26    25   ar
    24    26    27   ar
    25    31    32    3
    26    32    33    1
    27    15    19    1
    28    15    16   ar
    29     5     1   ar
    30    17    25    1
    31    17    16   ar
    32     1     7    1
    33    25    29   ar
    34    16    20    1
    35     3    11    1
    36    22    21    1
    37    21    20    1
    38    21    23    1
    39    29    28   ar
    40    28    35    1
    41    28    27   ar
    42    35    36   ar
    43    27    34    1
    44    37    46    1
    45    37    36   ar
    46    46    47    3
    47    36    41    1
    48    47    48    1
    49    41    42    1
    50    42    43    1
    51    42    44    1
