@<TRIPOS>MOLECULE
mol_data/noopt/geoms/mol2/13hh13hh.out
 26 27 0 0 0
SMALL
GASTEIGER

@<TRIPOS>ATOM
      1 C           1.1215   -0.3259    0.0002 C.ar    1  LIG1        0.0249
      2 C           0.7176    0.9721   -0.0005 C.ar    1  LIG1        0.0637
      3 C          -0.7144    0.9744    0.0003 C.ar    1  LIG1        0.0726
      4 C          -1.1226   -0.3223   -0.0003 C.ar    1  LIG1        0.0875
      5 N          -0.0018   -1.1217    0.0001 N.ar    1  LIG1       -0.3564
      6 H          -0.0034   -2.1157   -0.0003 H       1  LIG1        0.1655
      7 H           2.3167   -0.8373    0.0007 H       1  LIG1        0.0826
      8 N           1.4918    2.0164   -0.0003 N.pl3   1  LIG1       -0.3554
      9 H           2.3463    1.7980   -0.4717 H       1  LIG1        0.1424
     10 H           1.0345    2.7705   -0.4717 H       1  LIG1        0.1424
     11 N          -1.4853    2.0212    0.0010 N.pl3   1  LIG1       -0.3549
     12 H          -1.0256    2.7740   -0.4702 H       1  LIG1        0.1424
     13 H          -2.3405    1.8056   -0.4703 H       1  LIG1        0.1424
     14 C          -2.3194   -0.8299   -0.0001 C.ar    1  LIG1        0.0875
     15 C          -3.5353   -0.2219   -0.0003 C.ar    1  LIG1        0.0726
     16 C          -4.5290   -1.2530    0.0012 C.ar    1  LIG1        0.0637
     17 C          -3.8767   -2.4457    0.0005 C.ar    1  LIG1        0.0249
     18 N          -2.5238   -2.1913    0.0002 N.ar    1  LIG1       -0.3564
     19 H          -1.8081   -2.8811   -0.0004 H       1  LIG1        0.1655
     20 H          -4.3398   -3.6604    0.0012 H       1  LIG1        0.0826
     21 N          -3.7520    1.0599   -0.0003 N.pl3   1  LIG1       -0.3549
     22 H          -3.0025    1.5247   -0.4717 H       1  LIG1        0.1424
     23 H          -4.6126    1.2525   -0.4717 H       1  LIG1        0.1424
     24 N          -5.8180   -1.0837    0.0025 N.pl3   1  LIG1       -0.3554
     25 H          -6.0426   -0.2307   -0.4686 H       1  LIG1        0.1424
     26 H          -6.2552   -1.8497   -0.4686 H       1  LIG1        0.1424
@<TRIPOS>BOND
     1    23    21    1
     2    10     8    1
     3    22    21    1
     4     9     8    1
     5    13    11    1
     6    12    11    1
     7    26    24    1
     8    25    24    1
     9     2     8    1
    10     2     1   ar
    11     2     3   ar
    12    19    18    1
    13    15    21    1
    14    15    14   ar
    15    15    16   ar
    16     4    14    1
    17     4     5   ar
    18     4     3   ar
    19     6     5    1
    20    14    18   ar
    21     5     1   ar
    22    18    17   ar
    23     1     7    1
    24     3    11    1
    25    17    16   ar
    26    17    20    1
    27    16    24    1
