@<TRIPOS>MOLECULE
mol_data/noopt/geoms/mol2/13hh13hh-13hh13hh-.out
 50 53 0 0 0
SMALL
GASTEIGER

@<TRIPOS>ATOM
      1 C           1.1215   -0.3259    0.0002 C.ar    1  LIG1        0.0249
      2 C           0.7176    0.9721   -0.0005 C.ar    1  LIG1        0.0637
      3 C          -0.7144    0.9744    0.0003 C.ar    1  LIG1        0.0726
      4 C          -1.1226   -0.3223   -0.0003 C.ar    1  LIG1        0.0875
      5 N          -0.0018   -1.1217    0.0001 N.ar    1  LIG1       -0.3564
      6 H          -0.0034   -2.1157   -0.0003 H       1  LIG1        0.1655
      7 H           2.3167   -0.8373    0.0007 H       1  LIG1        0.0826
      8 N           1.4918    2.0164   -0.0003 N.pl3   1  LIG1       -0.3554
      9 H           2.3463    1.7980   -0.4717 H       1  LIG1        0.1424
     10 H           1.0345    2.7705   -0.4717 H       1  LIG1        0.1424
     11 N          -1.4853    2.0212    0.0010 N.pl3   1  LIG1       -0.3549
     12 H          -1.0256    2.7740   -0.4702 H       1  LIG1        0.1424
     13 H          -2.3405    1.8056   -0.4703 H       1  LIG1        0.1424
     14 C          -2.3194   -0.8299   -0.0001 C.ar    1  LIG1        0.0880
     15 C          -2.7274   -2.1266   -0.0005 C.ar    1  LIG1        0.0733
     16 C          -4.1594   -2.1244    0.0011 C.ar    1  LIG1        0.0733
     17 C          -4.5635   -0.8264    0.0006 C.ar    1  LIG1        0.0880
     18 N          -3.4402   -0.0305    0.0003 N.ar    1  LIG1       -0.3488
     19 H          -3.4386    0.9635   -0.0001 H       1  LIG1        0.1661
     20 N          -1.9565   -3.1734   -0.0006 N.pl3   1  LIG1       -0.3548
     21 H          -2.4164   -3.9259   -0.4720 H       1  LIG1        0.1424
     22 H          -1.1015   -2.9576   -0.4721 H       1  LIG1        0.1424
     23 N          -4.9336   -3.1687    0.0023 N.pl3   1  LIG1       -0.3548
     24 H          -5.7883   -2.9506   -0.4688 H       1  LIG1        0.1424
     25 H          -4.4765   -3.9231   -0.4688 H       1  LIG1        0.1424
     26 C          -5.7587   -0.3150    0.0014 C.ar    1  LIG1        0.0880
     27 C          -6.1626    0.9830    0.0016 C.ar    1  LIG1        0.0733
     28 C          -7.5946    0.9853    0.0038 C.ar    1  LIG1        0.0733
     29 C          -8.0028   -0.3114    0.0030 C.ar    1  LIG1        0.0880
     30 N          -6.8820   -1.1108    0.0021 N.ar    1  LIG1       -0.3488
     31 H          -6.8836   -2.1048    0.0013 H       1  LIG1        0.1661
     32 N          -5.3884    2.0273    0.0015 N.pl3   1  LIG1       -0.3548
     33 H          -4.5340    1.8088   -0.4699 H       1  LIG1        0.1424
     34 H          -5.8458    2.7813   -0.4699 H       1  LIG1        0.1424
     35 N          -8.3655    2.0321    0.0056 N.pl3   1  LIG1       -0.3548
     36 H          -7.9061    2.7852   -0.4653 H       1  LIG1        0.1424
     37 H          -9.2210    1.8169   -0.4654 H       1  LIG1        0.1424
     38 C          -9.1996   -0.8190    0.0041 C.ar    1  LIG1        0.0875
     39 C          -9.6076   -2.1157    0.0044 C.ar    1  LIG1        0.0726
     40 C         -11.0396   -2.1135    0.0069 C.ar    1  LIG1        0.0637
     41 C         -11.4437   -0.8155    0.0063 C.ar    1  LIG1        0.0249
     42 N         -10.3204   -0.0196    0.0051 N.ar    1  LIG1       -0.3564
     43 H         -10.3188    0.9744    0.0043 H       1  LIG1        0.1655
     44 H         -12.6389   -0.3041    0.0077 H       1  LIG1        0.0826
     45 N          -8.8367   -3.1625    0.0040 N.pl3   1  LIG1       -0.3549
     46 H          -9.2966   -3.9150   -0.4675 H       1  LIG1        0.1424
     47 H          -7.9817   -2.9466   -0.4675 H       1  LIG1        0.1424
     48 N         -11.8139   -3.1578    0.0089 N.pl3   1  LIG1       -0.3554
     49 H         -12.6687   -2.9399   -0.4620 H       1  LIG1        0.1424
     50 H         -11.3569   -3.9124   -0.4620 H       1  LIG1        0.1424
@<TRIPOS>BOND
     1    22    20    1
     2    21    20    1
     3    10     8    1
     4     9     8    1
     5    13    11    1
     6    12    11    1
     7    34    32    1
     8    33    32    1
     9    25    23    1
    10    24    23    1
    11    47    45    1
    12    46    45    1
    13    37    35    1
    14    36    35    1
    15    50    48    1
    16    49    48    1
    17    20    15    1
    18     2     8    1
    19     2     1   ar
    20     2     3   ar
    21    15    14   ar
    22    15    16   ar
    23     6     5    1
    24     4    14    1
    25     4     5   ar
    26     4     3   ar
    27    19    18    1
    28    14    18   ar
    29     5     1   ar
    30     1     7    1
    31     3    11    1
    32    18    17   ar
    33    17    16   ar
    34    17    26    1
    35    16    23    1
    36    31    30    1
    37    26    27   ar
    38    26    30   ar
    39    32    27    1
    40    27    28   ar
    41    30    29   ar
    42    29    28   ar
    43    29    38    1
    44    28    35    1
    45    45    39    1
    46    38    39   ar
    47    38    42   ar
    48    43    42    1
    49    39    40   ar
    50    42    41   ar
    51    41    40   ar
    52    41    44    1
    53    40    48    1
