@<TRIPOS>MOLECULE
mol_data/noopt/geoms/mol2/13hh13hh-4hh13hh.out
 52 55 0 0 0
SMALL
GASTEIGER

@<TRIPOS>ATOM
      1 C           1.1215   -0.3259    0.0002 C.ar    1  LIG1        0.0249
      2 C           0.7176    0.9721   -0.0005 C.ar    1  LIG1        0.0637
      3 C          -0.7144    0.9744    0.0003 C.ar    1  LIG1        0.0726
      4 C          -1.1226   -0.3223   -0.0003 C.ar    1  LIG1        0.0875
      5 N          -0.0018   -1.1217    0.0001 N.ar    1  LIG1       -0.3564
      6 H          -0.0034   -2.1157   -0.0003 H       1  LIG1        0.1655
      7 H           2.3167   -0.8373    0.0007 H       1  LIG1        0.0826
      8 N           1.4918    2.0164   -0.0003 N.pl3   1  LIG1       -0.3554
      9 H           2.3463    1.7980   -0.4717 H       1  LIG1        0.1424
     10 H           1.0345    2.7705   -0.4717 H       1  LIG1        0.1424
     11 N          -1.4853    2.0212    0.0010 N.pl3   1  LIG1       -0.3549
     12 H          -1.0256    2.7740   -0.4702 H       1  LIG1        0.1424
     13 H          -2.3405    1.8056   -0.4703 H       1  LIG1        0.1424
     14 C          -2.3194   -0.8299   -0.0001 C.ar    1  LIG1        0.0880
     15 C          -2.7274   -2.1266   -0.0005 C.ar    1  LIG1        0.0733
     16 C          -4.1594   -2.1244    0.0011 C.ar    1  LIG1        0.0719
     17 C          -4.5635   -0.8264    0.0006 C.ar    1  LIG1        0.0716
     18 N          -3.4402   -0.0305    0.0003 N.ar    1  LIG1       -0.3500
     19 H          -3.4386    0.9635   -0.0001 H       1  LIG1        0.1661
     20 N          -1.9565   -3.1734   -0.0006 N.pl3   1  LIG1       -0.3549
     21 H          -2.4164   -3.9259   -0.4720 H       1  LIG1        0.1424
     22 H          -1.1015   -2.9576   -0.4721 H       1  LIG1        0.1424
     23 N          -4.9336   -3.1687    0.0023 N.pl3   1  LIG1       -0.3549
     24 H          -5.7883   -2.9506   -0.4688 H       1  LIG1        0.1424
     25 H          -4.4765   -3.9231   -0.4688 H       1  LIG1        0.1424
     26 C          -5.9236    1.0852    0.0026 C.ar    1  LIG1        0.0346
     27 C          -7.2385    1.5895    0.0050 C.ar    1  LIG1       -0.0295
     28 C          -5.7587   -0.3150    0.0014 C.ar    1  LIG1        0.0226
     29 C          -8.3419    0.7391    0.0056 C.ar    1  LIG1        0.0225
     30 H          -7.3885    2.6668    0.0062 H       1  LIG1        0.0643
     31 C          -6.8598   -1.1644    0.0020 C.ar    1  LIG1       -0.0295
     32 C          -8.1582   -0.6442    0.0040 C.ar    1  LIG1        0.0346
     33 H          -6.7065   -2.2406    0.0011 H       1  LIG1        0.0643
     34 N          -4.9342    1.9285    0.0020 N.pl3   1  LIG1       -0.3574
     35 H          -4.1511    1.5232   -0.4696 H       1  LIG1        0.1423
     36 H          -5.2104    2.7660   -0.4697 H       1  LIG1        0.1423
     37 N          -9.1838   -1.4431    0.0046 N.pl3   1  LIG1       -0.3574
     38 H          -9.9487   -1.0039   -0.4666 H       1  LIG1        0.1423
     39 H          -8.9452   -2.2922   -0.4666 H       1  LIG1        0.1423
     40 C          -9.5420    1.2389    0.0077 C.ar    1  LIG1        0.0711
     41 C          -9.9585    2.5329    0.0088 C.ar    1  LIG1        0.0712
     42 C         -11.3904    2.5213    0.0122 C.ar    1  LIG1        0.0637
     43 C         -11.7860    1.2207    0.0113 C.ar    1  LIG1        0.0249
     44 N         -10.6575    0.4322    0.0090 N.ar    1  LIG1       -0.3575
     45 H         -10.6495   -0.5617    0.0079 H       1  LIG1        0.1654
     46 H         -12.9778    0.7015    0.0134 H       1  LIG1        0.0826
     47 N          -9.1944    3.5847    0.0084 N.pl3   1  LIG1       -0.3549
     48 H          -8.3380    3.3744   -0.4631 H       1  LIG1        0.1424
     49 H          -9.6591    4.3341   -0.4632 H       1  LIG1        0.1424
     50 N         -12.1714    3.5606    0.0152 N.pl3   1  LIG1       -0.3554
     51 H         -11.7196    4.3184   -0.4555 H       1  LIG1        0.1424
     52 H         -13.0250    3.3374   -0.4555 H       1  LIG1        0.1424
@<TRIPOS>BOND
     1    22    20    1
     2    21    20    1
     3    10     8    1
     4     9     8    1
     5    13    11    1
     6    12    11    1
     7    36    34    1
     8    35    34    1
     9    25    23    1
    10    24    23    1
    11    39    37    1
    12    38    37    1
    13    49    47    1
    14    48    47    1
    15    52    50    1
    16    51    50    1
    17    20    15    1
    18     2     8    1
    19     2     1   ar
    20     2     3   ar
    21    15    14   ar
    22    15    16   ar
    23     6     5    1
    24     4    14    1
    25     4     5   ar
    26     4     3   ar
    27    19    18    1
    28    14    18   ar
    29     5     1   ar
    30     1     7    1
    31     3    11    1
    32    18    17   ar
    33    17    16   ar
    34    17    28    1
    35    16    23    1
    36    33    31    1
    37    28    31   ar
    38    28    26   ar
    39    34    26    1
    40    31    32   ar
    41    26    27   ar
    42    32    37    1
    43    32    29   ar
    44    27    29   ar
    45    27    30    1
    46    29    40    1
    47    40    41   ar
    48    40    44   ar
    49    45    44    1
    50    47    41    1
    51    41    42   ar
    52    44    43   ar
    53    43    42   ar
    54    43    46    1
    55    42    50    1
