@<TRIPOS>MOLECULE
mol_data/noopt/geoms/mol2/13hh13hh-.out
 26 27 0 0 0
SMALL
GASTEIGER

@<TRIPOS>ATOM
      1 C           1.1215   -0.3259    0.0002 C.ar    1  LIG1        0.0249
      2 C           0.7176    0.9721   -0.0005 C.ar    1  LIG1        0.0637
      3 C          -0.7144    0.9744    0.0003 C.ar    1  LIG1        0.0726
      4 C          -1.1226   -0.3223   -0.0003 C.ar    1  LIG1        0.0875
      5 N          -0.0018   -1.1217    0.0001 N.ar    1  LIG1       -0.3564
      6 H          -0.0034   -2.1157   -0.0003 H       1  LIG1        0.1655
      7 H           2.3167   -0.8373    0.0007 H       1  LIG1        0.0826
      8 N           1.4918    2.0164   -0.0003 N.pl3   1  LIG1       -0.3554
      9 H           2.3463    1.7980   -0.4717 H       1  LIG1        0.1424
     10 H           1.0345    2.7705   -0.4717 H       1  LIG1        0.1424
     11 N          -1.4853    2.0212    0.0010 N.pl3   1  LIG1       -0.3549
     12 H          -1.0256    2.7740   -0.4702 H       1  LIG1        0.1424
     13 H          -2.3405    1.8056   -0.4703 H       1  LIG1        0.1424
     14 C          -2.3194   -0.8299   -0.0001 C.ar    1  LIG1        0.0875
     15 C          -2.7274   -2.1266   -0.0005 C.ar    1  LIG1        0.0726
     16 C          -4.1594   -2.1244    0.0011 C.ar    1  LIG1        0.0637
     17 C          -4.5635   -0.8264    0.0006 C.ar    1  LIG1        0.0249
     18 N          -3.4402   -0.0305    0.0003 N.ar    1  LIG1       -0.3564
     19 H          -3.4386    0.9635   -0.0001 H       1  LIG1        0.1655
     20 H          -5.7587   -0.3150    0.0014 H       1  LIG1        0.0826
     21 N          -1.9565   -3.1734   -0.0006 N.pl3   1  LIG1       -0.3549
     22 H          -2.4164   -3.9259   -0.4720 H       1  LIG1        0.1424
     23 H          -1.1015   -2.9576   -0.4721 H       1  LIG1        0.1424
     24 N          -4.9336   -3.1687    0.0023 N.pl3   1  LIG1       -0.3554
     25 H          -5.7883   -2.9506   -0.4688 H       1  LIG1        0.1424
     26 H          -4.4765   -3.9231   -0.4688 H       1  LIG1        0.1424
@<TRIPOS>BOND
     1    23    21    1
     2    22    21    1
     3    10     8    1
     4     9     8    1
     5    13    11    1
     6    12    11    1
     7    26    24    1
     8    25    24    1
     9    21    15    1
    10     2     8    1
    11     2     1   ar
    12     2     3   ar
    13    15    14   ar
    14    15    16   ar
    15     4    14    1
    16     4     5   ar
    17     4     3   ar
    18     6     5    1
    19    19    18    1
    20    14    18   ar
    21     5     1   ar
    22     1     7    1
    23     3    11    1
    24    18    17   ar
    25    17    16   ar
    26    17    20    1
    27    16    24    1
