@<TRIPOS>MOLECULE
mol_data/noopt/geoms/mol2/13hh12el4de4hh-.out
 54 57 0 0 0
SMALL
GASTEIGER

@<TRIPOS>ATOM
      1 C           1.1215   -0.3259    0.0002 C.ar    1  LIG1        0.0249
      2 C           0.7176    0.9721   -0.0005 C.ar    1  LIG1        0.0638
      3 C          -0.7144    0.9744    0.0003 C.ar    1  LIG1        0.0742
      4 C          -1.1226   -0.3223   -0.0003 C.ar    1  LIG1        0.1062
      5 N          -0.0018   -1.1217    0.0001 N.ar    1  LIG1       -0.3551
      6 H          -0.0034   -2.1157   -0.0003 H       1  LIG1        0.1655
      7 H           2.3167   -0.8373    0.0007 H       1  LIG1        0.0826
      8 N           1.4918    2.0164   -0.0003 N.pl3   1  LIG1       -0.3554
      9 H           2.3463    1.7980   -0.4717 H       1  LIG1        0.1424
     10 H           1.0345    2.7705   -0.4717 H       1  LIG1        0.1424
     11 N          -1.4853    2.0212    0.0010 N.pl3   1  LIG1       -0.3548
     12 H          -1.0256    2.7740   -0.4702 H       1  LIG1        0.1424
     13 H          -2.3405    1.8056   -0.4703 H       1  LIG1        0.1424
     14 C          -2.3194   -0.8299   -0.0001 C.ar    1  LIG1        0.1726
     15 C          -3.6024   -0.3233    0.0148 C.ar    1  LIG1        0.1141
     16 C          -4.4979   -1.4613    0.0044 C.ar    1  LIG1        0.1817
     17 C          -3.7022   -2.5883   -0.0164 C.ar    1  LIG1        0.1797
     18 O          -2.3551   -2.2249   -0.0196 O.2     1  LIG1       -0.4482
     19 C          -3.9648    0.9250    0.0347 C.1     1  LIG1       -0.0621
     20 C          -4.2997    2.0784    0.0530 C.1     1  LIG1       -0.1137
     21 H          -4.5979    3.1059    0.0693 H       1  LIG1        0.1232
     22 O          -5.7966   -1.4036    0.0131 O.3     1  LIG1       -0.4901
     23 C          -6.2135   -0.0357    0.0162 C.3     1  LIG1        0.0790
     24 H          -7.2825    0.0113    0.0233 H       1  LIG1        0.0660
     25 H          -5.8293    0.4523    0.8876 H       1  LIG1        0.0660
     26 H          -5.8408    0.4528   -0.8597 H       1  LIG1        0.0660
     27 C          -5.2335   -4.3655   -0.0413 C.ar    1  LIG1        0.0632
     28 C          -5.4091   -5.7627   -0.0579 C.ar    1  LIG1       -0.0347
     29 C          -3.9133   -3.8709   -0.0331 C.ar    1  LIG1        0.0395
     30 C          -4.3197   -6.6310   -0.0665 C.ar    1  LIG1        0.0006
     31 H          -6.4194   -6.1657   -0.0643 H       1  LIG1        0.0637
     32 C          -2.8254   -4.7372   -0.0417 C.ar    1  LIG1       -0.0337
     33 C          -3.0204   -6.1222   -0.0585 C.ar    1  LIG1        0.0332
     34 H          -1.8170   -4.3313   -0.0349 H       1  LIG1        0.0637
     35 N          -7.2195   -2.9367   -0.0280 N.1     1  LIG1       -0.1908
     36 C          -6.2888   -3.6063   -0.0342 C.1     1  LIG1        0.0999
     37 C          -1.9996   -6.9272   -0.0663 C.1     1  LIG1       -0.0690
     38 C          -1.0564   -7.6710   -0.0735 C.1     1  LIG1       -0.1139
     39 H          -0.2163   -8.3336   -0.0799 H       1  LIG1        0.1232
     40 C          -5.8336   -8.4232   -0.0681 C.ar    1  LIG1        0.0325
     41 C          -5.9956   -9.8221   -0.0842 C.ar    1  LIG1       -0.0387
     42 C          -4.5183   -7.9155   -0.0819 C.ar    1  LIG1        0.0057
     43 C          -4.8980  -10.6794   -0.1133 C.ar    1  LIG1       -0.0393
     44 H          -7.0018  -10.2350   -0.0738 H       1  LIG1        0.0637
     45 C          -3.4222   -8.7710   -0.1110 C.ar    1  LIG1       -0.0315
     46 C          -3.6038  -10.1579   -0.1270 C.ar    1  LIG1        0.0252
     47 H          -2.4180   -8.3551   -0.1210 H       1  LIG1        0.0643
     48 H          -5.0841  -11.9660   -0.1276 H       1  LIG1        0.0636
     49 N          -6.8960   -7.6746   -0.0413 N.pl3   1  LIG1       -0.3575
     50 H          -6.7061   -6.8096   -0.5057 H       1  LIG1        0.1423
     51 H          -7.6467   -8.1444   -0.5057 H       1  LIG1        0.1423
     52 N          -2.5754  -10.9527   -0.1540 N.pl3   1  LIG1       -0.3579
     53 H          -2.8188  -11.7965   -0.6322 H       1  LIG1        0.1423
     54 H          -1.8202  -10.5044   -0.6323 H       1  LIG1        0.1423
@<TRIPOS>BOND
     1    26    23    1
     2    54    52    1
     3    53    52    1
     4    51    49    1
     5    50    49    1
     6    10     8    1
     7     9     8    1
     8    13    11    1
     9    12    11    1
    10    52    46    1
    11    48    43    1
    12    46    43   ar
    13    46    45   ar
    14    47    45    1
    15    43    41   ar
    16    45    42   ar
    17    41    44    1
    18    41    40   ar
    19    42    40   ar
    20    42    30    1
    21    39    38    1
    22    38    37    3
    23    40    49    1
    24    30    33   ar
    25    30    28   ar
    26    37    33    1
    27    31    28    1
    28    33    32   ar
    29    28    27   ar
    30    32    34    1
    31    32    29   ar
    32    27    36    1
    33    27    29   ar
    34    36    35    3
    35    29    17    1
    36    18    17   ar
    37    18    14   ar
    38    17    16   ar
    39     2     8    1
    40     2     1   ar
    41     2     3   ar
    42     4    14    1
    43     4     5   ar
    44     4     3   ar
    45     6     5    1
    46    14    15   ar
    47     5     1   ar
    48     1     7    1
    49     3    11    1
    50    16    22    1
    51    16    15   ar
    52    22    23    1
    53    15    19    1
    54    23    24    1
    55    23    25    1
    56    19    20    3
    57    20    21    1
