@<TRIPOS>MOLECULE
mol_data/noopt/geoms/mol2/13hh12ld(210)12hi(260)4id(270).out
 52 55 0 0 0
SMALL
GASTEIGER

@<TRIPOS>ATOM
      1 C           1.1215   -0.3259    0.0002 C.ar    1  LIG1        0.0249
      2 C           0.7176    0.9721   -0.0005 C.ar    1  LIG1        0.0638
      3 C          -0.7144    0.9744    0.0003 C.ar    1  LIG1        0.0743
      4 C          -1.1226   -0.3223   -0.0003 C.ar    1  LIG1        0.1086
      5 N          -0.0018   -1.1217    0.0001 N.ar    1  LIG1       -0.3550
      6 H          -0.0034   -2.1157   -0.0003 H       1  LIG1        0.1655
      7 H           2.3167   -0.8373    0.0007 H       1  LIG1        0.0826
      8 N           1.4918    2.0164   -0.0003 N.pl3   1  LIG1       -0.3554
      9 H           2.3463    1.7980   -0.4717 H       1  LIG1        0.1424
     10 H           1.0345    2.7705   -0.4717 H       1  LIG1        0.1424
     11 N          -1.4853    2.0212    0.0010 N.pl3   1  LIG1       -0.3548
     12 H          -1.0256    2.7740   -0.4702 H       1  LIG1        0.1424
     13 H          -2.3405    1.8056   -0.4703 H       1  LIG1        0.1424
     14 C          -2.3194   -0.8299   -0.0001 C.ar    1  LIG1        0.1964
     15 C          -2.8877   -2.0087   -0.4366 C.ar    1  LIG1        0.1854
     16 C          -4.2989   -1.9305   -0.1213 C.ar    1  LIG1        0.1428
     17 C          -4.4994   -0.7086    0.4873 C.ar    1  LIG1        0.1935
     18 O          -3.2937   -0.0117    0.5735 O.2     1  LIG1       -0.4450
     19 O          -2.2964   -3.0092   -1.0193 O.3     1  LIG1       -0.4901
     20 C          -3.2398   -4.0623   -1.2333 C.3     1  LIG1        0.0790
     21 H          -2.7528   -4.8855   -1.7130 H       1  LIG1        0.0660
     22 H          -3.6370   -4.3820   -0.2925 H       1  LIG1        0.0660
     23 H          -4.0356   -3.7076   -1.8543 H       1  LIG1        0.0660
     24 N          -5.9640   -3.6589   -0.5968 N.1     1  LIG1       -0.1906
     25 C          -5.1836   -2.8489   -0.3740 C.1     1  LIG1        0.1068
     26 C          -5.5220   -0.0775    0.9831 C.ar    1  LIG1        0.1927
     27 C          -6.7037    0.4274    0.4815 C.ar    1  LIG1        0.0777
     28 C          -7.4072    1.0234    1.5981 C.ar    1  LIG1        0.0167
     29 C          -6.6084    0.8430    2.7085 C.ar    1  LIG1        0.1408
     30 O          -5.4405    0.1665    2.3548 O.2     1  LIG1       -0.4495
     31 N          -7.1273    0.3895   -0.7470 N.pl3   1  LIG1       -0.3547
     32 H          -6.8648    1.2328   -1.2162 H       1  LIG1        0.1424
     33 H          -6.7194   -0.3937   -1.2162 H       1  LIG1        0.1424
     34 C          -8.5667    1.6090    1.5378 C.3     1  LIG1       -0.0343
     35 H          -9.2994    1.0003    2.0251 H       1  LIG1        0.0279
     36 H          -8.8430    1.7485    0.5135 H       1  LIG1        0.0279
     37 H          -8.5117    2.5600    2.0251 H       1  LIG1        0.0279
     38 C          -7.0477    2.4586    4.3519 C.ar    1  LIG1       -0.0397
     39 C          -7.1228    2.7403    5.7296 C.ar    1  LIG1       -0.0570
     40 C          -6.6918    1.1492    3.9691 C.ar    1  LIG1        0.0217
     41 C          -6.8564    1.7629    6.6858 C.ar    1  LIG1       -0.0441
     42 H          -7.3954    3.7444    6.0469 H       1  LIG1        0.0621
     43 C          -6.4258    0.1730    4.9232 C.ar    1  LIG1       -0.0334
     44 C          -6.5061    0.4723    6.2872 C.ar    1  LIG1        0.0525
     45 H          -6.1533   -0.8294    4.6028 H       1  LIG1        0.0637
     46 H          -6.9354    2.0576    7.9495 H       1  LIG1        0.0630
     47 C          -7.3077    3.4123    3.5070 C.3     1  LIG1       -0.0390
     48 H          -8.3082    3.7602    3.6587 H       1  LIG1        0.0278
     49 H          -7.2067    3.0415    2.5084 H       1  LIG1        0.0278
     50 H          -6.6224    4.2199    3.6587 H       1  LIG1        0.0278
     51 N          -6.0358   -1.2527    7.9572 N.1     1  LIG1       -0.1909
     52 C          -6.2562   -0.4443    7.1746 C.1     1  LIG1        0.0992
@<TRIPOS>BOND
     1    23    20    1
     2    21    20    1
     3    20    19    1
     4    20    22    1
     5    33    31    1
     6    32    31    1
     7    19    15    1
     8    31    27    1
     9    24    25    3
    10    10     8    1
    11     9     8    1
    12    13    11    1
    13    12    11    1
    14    15    16   ar
    15    15    14   ar
    16    25    16    1
    17    16    17   ar
    18     2     8    1
    19     2     1   ar
    20     2     3   ar
    21     6     5    1
    22     4    14    1
    23     4     5   ar
    24     4     3   ar
    25    14    18   ar
    26     5     1   ar
    27     1     7    1
    28     3    11    1
    29    27    26   ar
    30    27    28   ar
    31    17    18   ar
    32    17    26    1
    33    36    34    1
    34    26    30   ar
    35    34    28    1
    36    34    37    1
    37    34    35    1
    38    28    29   ar
    39    30    29   ar
    40    49    47    1
    41    29    40    1
    42    47    50    1
    43    47    48    1
    44    47    38    1
    45    40    38   ar
    46    40    43   ar
    47    38    39   ar
    48    45    43    1
    49    43    44   ar
    50    39    42    1
    51    39    41   ar
    52    44    41   ar
    53    44    52    1
    54    41    46    1
    55    52    51    3
