@<TRIPOS>MOLECULE
mol_data/noopt/geoms/mol2/13hh13hh13hh.out
 38 40 0 0 0
SMALL
GASTEIGER

@<TRIPOS>ATOM
      1 C           1.1215   -0.3259    0.0002 C.ar    1  LIG1        0.0249
      2 C           0.7176    0.9721   -0.0005 C.ar    1  LIG1        0.0637
      3 C          -0.7144    0.9744    0.0003 C.ar    1  LIG1        0.0726
      4 C          -1.1226   -0.3223   -0.0003 C.ar    1  LIG1        0.0875
      5 N          -0.0018   -1.1217    0.0001 N.ar    1  LIG1       -0.3564
      6 H          -0.0034   -2.1157   -0.0003 H       1  LIG1        0.1655
      7 H           2.3167   -0.8373    0.0007 H       1  LIG1        0.0826
      8 N           1.4918    2.0164   -0.0003 N.pl3   1  LIG1       -0.3554
      9 H           2.3463    1.7980   -0.4717 H       1  LIG1        0.1424
     10 H           1.0345    2.7705   -0.4717 H       1  LIG1        0.1424
     11 N          -1.4853    2.0212    0.0010 N.pl3   1  LIG1       -0.3549
     12 H          -1.0256    2.7740   -0.4702 H       1  LIG1        0.1424
     13 H          -2.3405    1.8056   -0.4703 H       1  LIG1        0.1424
     14 C          -2.3194   -0.8299   -0.0001 C.ar    1  LIG1        0.0880
     15 C          -3.5353   -0.2219   -0.0003 C.ar    1  LIG1        0.0733
     16 C          -4.5290   -1.2530    0.0012 C.ar    1  LIG1        0.0733
     17 C          -3.8767   -2.4457    0.0005 C.ar    1  LIG1        0.0880
     18 N          -2.5238   -2.1913    0.0002 N.ar    1  LIG1       -0.3488
     19 H          -1.8081   -2.8811   -0.0004 H       1  LIG1        0.1661
     20 N          -3.7520    1.0599   -0.0003 N.pl3   1  LIG1       -0.3548
     21 H          -3.0025    1.5247   -0.4717 H       1  LIG1        0.1424
     22 H          -4.6126    1.2525   -0.4717 H       1  LIG1        0.1424
     23 N          -5.8180   -1.0837    0.0025 N.pl3   1  LIG1       -0.3548
     24 H          -6.0426   -0.2307   -0.4686 H       1  LIG1        0.1424
     25 H          -6.2552   -1.8497   -0.4686 H       1  LIG1        0.1424
     26 C          -4.3398   -3.6604    0.0012 C.ar    1  LIG1        0.0875
     27 C          -5.6206   -4.1160    0.0013 C.ar    1  LIG1        0.0726
     28 C          -5.5655   -5.5470    0.0033 C.ar    1  LIG1        0.0637
     29 C          -4.2535   -5.9029    0.0026 C.ar    1  LIG1        0.0249
     30 N          -3.4996   -4.7510    0.0018 N.ar    1  LIG1       -0.3564
     31 H          -2.5064   -4.7127    0.0010 H       1  LIG1        0.1655
     32 H          -3.6983   -7.0784    0.0036 H       1  LIG1        0.0826
     33 N          -6.6951   -3.3843    0.0012 N.pl3   1  LIG1       -0.3549
     34 H          -6.5110   -2.5218   -0.4702 H       1  LIG1        0.1424
     35 H          -7.4301   -3.8715   -0.4702 H       1  LIG1        0.1424
     36 N          -6.5805   -6.3592    0.0050 N.pl3   1  LIG1       -0.3554
     37 H          -7.3514   -5.9303   -0.4659 H       1  LIG1        0.1424
     38 H          -6.3312   -7.2053   -0.4660 H       1  LIG1        0.1424
@<TRIPOS>BOND
     1    22    20    1
     2    10     8    1
     3    21    20    1
     4     9     8    1
     5    13    11    1
     6    35    33    1
     7    12    11    1
     8    34    33    1
     9    25    23    1
    10    24    23    1
    11    38    36    1
    12    37    36    1
    13     2     8    1
    14     2     1   ar
    15     2     3   ar
    16    19    18    1
    17    15    20    1
    18    15    14   ar
    19    15    16   ar
    20     6     5    1
    21     4    14    1
    22     4     5   ar
    23     4     3   ar
    24    14    18   ar
    25     5     1   ar
    26    18    17   ar
    27     1     7    1
    28     3    11    1
    29    17    16   ar
    30    17    26    1
    31    31    30    1
    32    16    23    1
    33    26    27   ar
    34    26    30   ar
    35    33    27    1
    36    27    28   ar
    37    30    29   ar
    38    29    28   ar
    39    29    32    1
    40    28    36    1
