@<TRIPOS>MOLECULE
mol_data/noopt/geoms/mol2/13hh13fh(10)4ad(220)13fe(140).out
 47 50 0 0 0
SMALL
GASTEIGER

@<TRIPOS>ATOM
      1 C           1.1215   -0.3259    0.0002 C.ar    1  LIG1        0.0249
      2 C           0.7176    0.9721   -0.0005 C.ar    1  LIG1        0.0637
      3 C          -0.7144    0.9744    0.0003 C.ar    1  LIG1        0.0727
      4 C          -1.1226   -0.3223   -0.0003 C.ar    1  LIG1        0.0893
      5 N          -0.0018   -1.1217    0.0001 N.ar    1  LIG1       -0.3563
      6 H          -0.0034   -2.1157   -0.0003 H       1  LIG1        0.1655
      7 H           2.3167   -0.8373    0.0007 H       1  LIG1        0.0826
      8 N           1.4918    2.0164   -0.0003 N.pl3   1  LIG1       -0.3554
      9 H           2.3463    1.7980   -0.4717 H       1  LIG1        0.1424
     10 H           1.0345    2.7705   -0.4717 H       1  LIG1        0.1424
     11 N          -1.4853    2.0212    0.0010 N.pl3   1  LIG1       -0.3549
     12 H          -1.0256    2.7740   -0.4702 H       1  LIG1        0.1424
     13 H          -2.3405    1.8056   -0.4703 H       1  LIG1        0.1424
     14 C          -2.3194   -0.8299   -0.0001 C.ar    1  LIG1        0.1091
     15 C          -3.5301   -0.2342    0.1653 C.ar    1  LIG1        0.1650
     16 C          -4.5266   -1.2588    0.0770 C.ar    1  LIG1        0.0929
     17 C          -3.8811   -2.4353   -0.1403 C.ar    1  LIG1        0.0716
     18 N          -2.5297   -2.1774   -0.1877 N.ar    1  LIG1       -0.3485
     19 H          -1.8186   -2.8562   -0.3348 H       1  LIG1        0.1661
     20 O          -3.7404    1.0327    0.3679 O.3     1  LIG1       -0.5030
     21 H          -4.6850    1.1967    0.4178 H       1  LIG1        0.2923
     22 N          -5.8121   -1.0975    0.1838 N.pl3   1  LIG1       -0.3535
     23 H          -6.0785   -0.2411   -0.2586 H       1  LIG1        0.1425
     24 H          -6.2818   -1.8614   -0.2587 H       1  LIG1        0.1425
     25 C          -3.6965   -4.5442   -1.1516 C.ar    1  LIG1       -0.0519
     26 C          -4.2435   -5.8355   -1.2803 C.ar    1  LIG1       -0.0507
     27 C          -4.3489   -3.6389   -0.2897 C.ar    1  LIG1        0.0015
     28 C          -5.3890   -6.2113   -0.5822 C.ar    1  LIG1        0.0193
     29 H          -3.7560   -6.5496   -1.9402 H       1  LIG1        0.0625
     30 C          -5.4925   -4.0136    0.4074 C.ar    1  LIG1       -0.0345
     31 C          -6.0204   -5.3012    0.2665 C.ar    1  LIG1        0.0616
     32 H          -5.9774   -3.2974    1.0659 H       1  LIG1        0.0637
     33 H          -2.6257   -4.2522   -1.8285 H       1  LIG1        0.0624
     34 N          -8.0328   -5.9496    1.4975 N.1     1  LIG1       -0.1908
     35 C          -7.0897   -5.6458    0.9206 C.1     1  LIG1        0.0998
     36 C          -5.8668   -7.4119   -0.7246 C.ar    1  LIG1        0.0910
     37 C          -5.4561   -8.5934   -0.1924 C.ar    1  LIG1        0.1574
     38 C          -6.3384   -9.6112   -0.6787 C.ar    1  LIG1        0.0839
     39 C          -7.2505   -9.0065   -1.4852 C.ar    1  LIG1        0.0213
     40 N          -6.9652   -7.6601   -1.5165 N.ar    1  LIG1       -0.3566
     41 H          -7.4722   -6.9757   -2.0289 H       1  LIG1        0.1655
     42 H          -8.2474   -9.5056   -2.1538 H       1  LIG1        0.0820
     43 O          -4.4467   -8.7643    0.6088 O.3     1  LIG1       -0.5035
     44 H          -4.0469   -7.9142    0.8063 H       1  LIG1        0.2923
     45 C          -6.2812  -10.8801   -0.4018 C.1     1  LIG1       -0.0645
     46 C          -6.2284  -12.0525   -0.1460 C.1     1  LIG1       -0.1137
     47 H          -6.1813  -13.0969    0.0818 H       1  LIG1        0.1232
@<TRIPOS>BOND
     1    42    39    1
     2    41    40    1
     3    29    26    1
     4    33    25    1
     5    40    39   ar
     6    40    36   ar
     7    39    38   ar
     8    26    25   ar
     9    26    28   ar
    10    25    27   ar
    11    36    28    1
    12    36    37   ar
    13    38    45    1
    14    38    37   ar
    15    28    31   ar
    16    10     8    1
    17     9     8    1
    18    13    11    1
    19    12    11    1
    20    45    46    3
    21    19    18    1
    22    27    17    1
    23    27    30   ar
    24    24    22    1
    25    23    22    1
    26    37    43    1
    27    18    17   ar
    28    18    14   ar
    29    46    47    1
    30    17    16   ar
    31     2     8    1
    32     2     1   ar
    33     2     3   ar
    34     4    14    1
    35     4     5   ar
    36     4     3   ar
    37     6     5    1
    38    14    15   ar
    39     5     1   ar
    40     1     7    1
    41     3    11    1
    42    16    15   ar
    43    16    22    1
    44    15    20    1
    45    31    30   ar
    46    31    35    1
    47    20    21    1
    48    30    32    1
    49    43    44    1
    50    35    34    3
