@<TRIPOS>MOLECULE
mol_data/noopt/geoms/mol2/13hh.out
 14 14 0 0 0
SMALL
GASTEIGER

@<TRIPOS>ATOM
      1 C           1.1215   -0.3259    0.0002 C.ar    1  LIG1        0.0244
      2 C           0.7176    0.9721   -0.0005 C.ar    1  LIG1        0.0631
      3 C          -0.7144    0.9744    0.0003 C.ar    1  LIG1        0.0631
      4 C          -1.1226   -0.3223   -0.0003 C.ar    1  LIG1        0.0244
      5 N          -0.0018   -1.1217    0.0001 N.ar    1  LIG1       -0.3639
      6 H          -0.0034   -2.1157   -0.0003 H       1  LIG1        0.1649
      7 H          -2.3194   -0.8299   -0.0001 H       1  LIG1        0.0826
      8 H           2.3167   -0.8373    0.0007 H       1  LIG1        0.0826
      9 N           1.4918    2.0164   -0.0003 N.pl3   1  LIG1       -0.3554
     10 H           2.3463    1.7980   -0.4717 H       1  LIG1        0.1424
     11 H           1.0345    2.7705   -0.4717 H       1  LIG1        0.1424
     12 N          -1.4853    2.0212    0.0010 N.pl3   1  LIG1       -0.3554
     13 H          -1.0256    2.7740   -0.4702 H       1  LIG1        0.1424
     14 H          -2.3405    1.8056   -0.4703 H       1  LIG1        0.1424
@<TRIPOS>BOND
     1    11     9    1
     2    10     9    1
     3    14    12    1
     4    13    12    1
     5     2     9    1
     6     2     1   ar
     7     2     3   ar
     8     4     7    1
     9     4     5   ar
    10     4     3   ar
    11     6     5    1
    12     5     1   ar
    13     1     8    1
    14     3    12    1
