@<TRIPOS>MOLECULE
mol_data/noopt/geoms/mol2/13hh13hh13hh-13hh-.out
 50 53 0 0 0
SMALL
GASTEIGER

@<TRIPOS>ATOM
      1 C           1.1215   -0.3259    0.0002 C.ar    1  LIG1        0.0249
      2 C           0.7176    0.9721   -0.0005 C.ar    1  LIG1        0.0637
      3 C          -0.7144    0.9744    0.0003 C.ar    1  LIG1        0.0726
      4 C          -1.1226   -0.3223   -0.0003 C.ar    1  LIG1        0.0875
      5 N          -0.0018   -1.1217    0.0001 N.ar    1  LIG1       -0.3564
      6 H          -0.0034   -2.1157   -0.0003 H       1  LIG1        0.1655
      7 H           2.3167   -0.8373    0.0007 H       1  LIG1        0.0826
      8 N           1.4918    2.0164   -0.0003 N.pl3   1  LIG1       -0.3554
      9 H           2.3463    1.7980   -0.4717 H       1  LIG1        0.1424
     10 H           1.0345    2.7705   -0.4717 H       1  LIG1        0.1424
     11 N          -1.4853    2.0212    0.0010 N.pl3   1  LIG1       -0.3549
     12 H          -1.0256    2.7740   -0.4702 H       1  LIG1        0.1424
     13 H          -2.3405    1.8056   -0.4703 H       1  LIG1        0.1424
     14 C          -2.3194   -0.8299   -0.0001 C.ar    1  LIG1        0.0880
     15 C          -3.5353   -0.2219   -0.0003 C.ar    1  LIG1        0.0733
     16 C          -4.5290   -1.2530    0.0012 C.ar    1  LIG1        0.0733
     17 C          -3.8767   -2.4457    0.0005 C.ar    1  LIG1        0.0880
     18 N          -2.5238   -2.1913    0.0002 N.ar    1  LIG1       -0.3488
     19 H          -1.8081   -2.8811   -0.0004 H       1  LIG1        0.1661
     20 N          -3.7520    1.0599   -0.0003 N.pl3   1  LIG1       -0.3548
     21 H          -3.0025    1.5247   -0.4717 H       1  LIG1        0.1424
     22 H          -4.6126    1.2525   -0.4717 H       1  LIG1        0.1424
     23 N          -5.8180   -1.0837    0.0025 N.pl3   1  LIG1       -0.3548
     24 H          -6.0426   -0.2307   -0.4686 H       1  LIG1        0.1424
     25 H          -6.2552   -1.8497   -0.4686 H       1  LIG1        0.1424
     26 C          -4.3398   -3.6604    0.0012 C.ar    1  LIG1        0.0880
     27 C          -3.6874   -4.8530    0.0012 C.ar    1  LIG1        0.0733
     28 C          -4.6811   -5.8841    0.0032 C.ar    1  LIG1        0.0733
     29 C          -5.8970   -5.2763    0.0027 C.ar    1  LIG1        0.0880
     30 N          -5.6927   -3.9149    0.0019 N.ar    1  LIG1       -0.3488
     31 H          -6.4084   -3.2251    0.0013 H       1  LIG1        0.1661
     32 N          -2.3984   -5.0223    0.0009 N.pl3   1  LIG1       -0.3548
     33 H          -2.1744   -5.8753   -0.4706 H       1  LIG1        0.1424
     34 H          -1.9617   -4.2562   -0.4706 H       1  LIG1        0.1424
     35 N          -4.4643   -7.1660    0.0049 N.pl3   1  LIG1       -0.3548
     36 H          -5.2137   -7.6313   -0.4661 H       1  LIG1        0.1424
     37 H          -3.6036   -7.3591   -0.4662 H       1  LIG1        0.1424
     38 C          -7.0939   -5.7839    0.0038 C.ar    1  LIG1        0.0875
     39 C          -7.5019   -7.0806    0.0041 C.ar    1  LIG1        0.0726
     40 C          -8.9339   -7.0784    0.0067 C.ar    1  LIG1        0.0637
     41 C          -9.3380   -5.7804    0.0061 C.ar    1  LIG1        0.0249
     42 N          -8.2146   -4.9846    0.0048 N.ar    1  LIG1       -0.3564
     43 H          -8.2131   -3.9906    0.0040 H       1  LIG1        0.1655
     44 H         -10.5331   -5.2690    0.0075 H       1  LIG1        0.0826
     45 N          -6.7310   -8.1274    0.0038 N.pl3   1  LIG1       -0.3549
     46 H          -7.1908   -8.8799   -0.4677 H       1  LIG1        0.1424
     47 H          -5.8760   -7.9116   -0.4678 H       1  LIG1        0.1424
     48 N          -9.7081   -8.1227    0.0087 N.pl3   1  LIG1       -0.3554
     49 H         -10.5629   -7.9048   -0.4622 H       1  LIG1        0.1424
     50 H          -9.2511   -8.8773   -0.4622 H       1  LIG1        0.1424
@<TRIPOS>BOND
     1    22    20    1
     2    10     8    1
     3    21    20    1
     4     9     8    1
     5    34    32    1
     6    33    32    1
     7    13    11    1
     8    12    11    1
     9    25    23    1
    10    24    23    1
    11    47    45    1
    12    46    45    1
    13    37    35    1
    14    36    35    1
    15    50    48    1
    16    49    48    1
    17     2     8    1
    18     2     1   ar
    19     2     3   ar
    20    19    18    1
    21    15    20    1
    22    15    14   ar
    23    15    16   ar
    24     6     5    1
    25     4    14    1
    26     4     5   ar
    27     4     3   ar
    28    14    18   ar
    29     5     1   ar
    30    18    17   ar
    31     1     7    1
    32     3    11    1
    33    17    16   ar
    34    17    26    1
    35    32    27    1
    36    27    26   ar
    37    27    28   ar
    38    16    23    1
    39    26    30   ar
    40    31    30    1
    41    30    29   ar
    42    29    28   ar
    43    29    38    1
    44    28    35    1
    45    45    39    1
    46    38    39   ar
    47    38    42   ar
    48    43    42    1
    49    39    40   ar
    50    42    41   ar
    51    41    40   ar
    52    41    44    1
    53    40    48    1
