@<TRIPOS>MOLECULE
mol_data/noopt/geoms/mol2/13hh13hh-13hh.out
 38 40 0 0 0
SMALL
GASTEIGER

@<TRIPOS>ATOM
      1 C           1.1215   -0.3259    0.0002 C.ar    1  LIG1        0.0249
      2 C           0.7176    0.9721   -0.0005 C.ar    1  LIG1        0.0637
      3 C          -0.7144    0.9744    0.0003 C.ar    1  LIG1        0.0726
      4 C          -1.1226   -0.3223   -0.0003 C.ar    1  LIG1        0.0875
      5 N          -0.0018   -1.1217    0.0001 N.ar    1  LIG1       -0.3564
      6 H          -0.0034   -2.1157   -0.0003 H       1  LIG1        0.1655
      7 H           2.3167   -0.8373    0.0007 H       1  LIG1        0.0826
      8 N           1.4918    2.0164   -0.0003 N.pl3   1  LIG1       -0.3554
      9 H           2.3463    1.7980   -0.4717 H       1  LIG1        0.1424
     10 H           1.0345    2.7705   -0.4717 H       1  LIG1        0.1424
     11 N          -1.4853    2.0212    0.0010 N.pl3   1  LIG1       -0.3549
     12 H          -1.0256    2.7740   -0.4702 H       1  LIG1        0.1424
     13 H          -2.3405    1.8056   -0.4703 H       1  LIG1        0.1424
     14 C          -2.3194   -0.8299   -0.0001 C.ar    1  LIG1        0.0880
     15 C          -2.7274   -2.1266   -0.0005 C.ar    1  LIG1        0.0733
     16 C          -4.1594   -2.1244    0.0011 C.ar    1  LIG1        0.0733
     17 C          -4.5635   -0.8264    0.0006 C.ar    1  LIG1        0.0880
     18 N          -3.4402   -0.0305    0.0003 N.ar    1  LIG1       -0.3488
     19 H          -3.4386    0.9635   -0.0001 H       1  LIG1        0.1661
     20 N          -1.9565   -3.1734   -0.0006 N.pl3   1  LIG1       -0.3548
     21 H          -2.4164   -3.9259   -0.4720 H       1  LIG1        0.1424
     22 H          -1.1015   -2.9576   -0.4721 H       1  LIG1        0.1424
     23 N          -4.9336   -3.1687    0.0023 N.pl3   1  LIG1       -0.3548
     24 H          -5.7883   -2.9506   -0.4688 H       1  LIG1        0.1424
     25 H          -4.4765   -3.9231   -0.4688 H       1  LIG1        0.1424
     26 C          -5.7587   -0.3150    0.0014 C.ar    1  LIG1        0.0875
     27 C          -6.1626    0.9830    0.0016 C.ar    1  LIG1        0.0726
     28 C          -7.5946    0.9853    0.0038 C.ar    1  LIG1        0.0637
     29 C          -8.0028   -0.3114    0.0030 C.ar    1  LIG1        0.0249
     30 N          -6.8820   -1.1108    0.0021 N.ar    1  LIG1       -0.3564
     31 H          -6.8836   -2.1048    0.0013 H       1  LIG1        0.1655
     32 H          -9.1996   -0.8190    0.0041 H       1  LIG1        0.0826
     33 N          -5.3884    2.0273    0.0015 N.pl3   1  LIG1       -0.3549
     34 H          -4.5340    1.8088   -0.4699 H       1  LIG1        0.1424
     35 H          -5.8458    2.7813   -0.4699 H       1  LIG1        0.1424
     36 N          -8.3655    2.0321    0.0056 N.pl3   1  LIG1       -0.3554
     37 H          -7.9061    2.7852   -0.4653 H       1  LIG1        0.1424
     38 H          -9.2210    1.8169   -0.4654 H       1  LIG1        0.1424
@<TRIPOS>BOND
     1    22    20    1
     2    21    20    1
     3    10     8    1
     4     9     8    1
     5    13    11    1
     6    12    11    1
     7    35    33    1
     8    34    33    1
     9    25    23    1
    10    24    23    1
    11    38    36    1
    12    37    36    1
    13    20    15    1
    14     2     8    1
    15     2     1   ar
    16     2     3   ar
    17    15    14   ar
    18    15    16   ar
    19     4    14    1
    20     4     5   ar
    21     4     3   ar
    22     6     5    1
    23    19    18    1
    24    14    18   ar
    25     5     1   ar
    26     1     7    1
    27     3    11    1
    28    18    17   ar
    29    17    16   ar
    30    17    26    1
    31    16    23    1
    32    31    30    1
    33    26    27   ar
    34    26    30   ar
    35    33    27    1
    36    27    28   ar
    37    30    29   ar
    38    29    28   ar
    39    29    32    1
    40    28    36    1
