@<TRIPOS>MOLECULE
mol_data/noopt/geoms/mol2/13hh6ff(80)6la(350)6ea.out
 49 52 0 0 0
SMALL
GASTEIGER

@<TRIPOS>ATOM
      1 C           1.1215   -0.3259    0.0002 C.ar    1  LIG1        0.0249
      2 C           0.7176    0.9721   -0.0005 C.ar    1  LIG1        0.0637
      3 C          -0.7144    0.9744    0.0003 C.ar    1  LIG1        0.0713
      4 C          -1.1226   -0.3223   -0.0003 C.ar    1  LIG1        0.0745
      5 N          -0.0018   -1.1217    0.0001 N.ar    1  LIG1       -0.3574
      6 H          -0.0034   -2.1157   -0.0003 H       1  LIG1        0.1654
      7 H           2.3167   -0.8373    0.0007 H       1  LIG1        0.0826
      8 N           1.4918    2.0164   -0.0003 N.pl3   1  LIG1       -0.3554
      9 H           2.3463    1.7980   -0.4717 H       1  LIG1        0.1424
     10 H           1.0345    2.7705   -0.4717 H       1  LIG1        0.1424
     11 N          -1.4853    2.0212    0.0010 N.pl3   1  LIG1       -0.3549
     12 H          -1.0256    2.7740   -0.4702 H       1  LIG1        0.1424
     13 H          -2.3405    1.8056   -0.4703 H       1  LIG1        0.1424
     14 C          -2.8918   -1.3020   -1.1954 C.ar    1  LIG1        0.2225
     15 C          -2.3194   -0.8299   -0.0001 C.ar    1  LIG1        0.0650
     16 C          -3.0644   -0.9204    1.1771 C.ar    1  LIG1       -0.0038
     17 C          -4.3445   -1.4742    1.1213 C.ar    1  LIG1        0.1437
     18 C          -4.8303   -1.9186   -0.1221 C.ar    1  LIG1        0.1212
     19 N          -4.1252   -1.8391   -1.2674 N.ar    1  LIG1       -0.2086
     20 H          -2.6507   -0.5610    2.1300 H       1  LIG1        0.0663
     21 O          -2.2374   -1.2394   -2.3170 O.3     1  LIG1       -0.4919
     22 H          -2.1623   -0.3232   -2.5934 H       1  LIG1        0.2937
     23 O          -5.0780   -1.5805    2.1894 O.3     1  LIG1       -0.5046
     24 H          -5.1290   -2.5023    2.4527 H       1  LIG1        0.2922
     25 C          -6.1976   -3.8281   -0.0712 C.ar    1  LIG1        0.2246
     26 C          -6.0161   -2.4415   -0.2250 C.ar    1  LIG1        0.0656
     27 C          -7.1340   -1.6479   -0.4886 C.ar    1  LIG1       -0.0453
     28 C          -8.3843   -2.2605   -0.5891 C.ar    1  LIG1       -0.0347
     29 C          -8.4644   -3.6550   -0.4198 C.ar    1  LIG1        0.0775
     30 N          -7.3963   -4.4357   -0.1648 N.ar    1  LIG1       -0.2123
     31 H          -7.0311   -0.5610   -0.6159 H       1  LIG1        0.0626
     32 O          -5.1874   -4.6084    0.1754 O.3     1  LIG1       -0.4792
     33 C          -5.6405   -5.9617    0.2658 C.3     1  LIG1        0.0804
     34 H          -4.8087   -6.6035    0.4686 H       1  LIG1        0.0660
     35 H          -6.3569   -6.0459    1.0562 H       1  LIG1        0.0660
     36 H          -6.0949   -6.2483   -0.6595 H       1  LIG1        0.0660
     37 H          -9.4555   -1.5656   -0.8334 H       1  LIG1        0.0639
     38 C          -9.6540   -5.6764   -0.5500 C.ar    1  LIG1        0.1222
     39 C          -9.6061   -4.2711   -0.5041 C.ar    1  LIG1        0.0343
     40 C         -10.8072   -3.5611   -0.5507 C.ar    1  LIG1       -0.0485
     41 C         -12.0051   -4.2722   -0.6409 C.ar    1  LIG1       -0.0429
     42 C         -11.9503   -5.6775   -0.6812 C.ar    1  LIG1        0.0290
     43 N         -10.8005   -6.3785   -0.6371 N.ar    1  LIG1       -0.2460
     44 H         -10.8093   -2.4624   -0.5180 H       1  LIG1        0.0625
     45 H         -13.0385   -6.3838   -0.7650 H       1  LIG1        0.0830
     46 C          -8.5625   -6.3813   -0.5094 C.1     1  LIG1       -0.0491
     47 C          -7.5539   -7.0327   -0.4719 C.1     1  LIG1       -0.1124
     48 H          -6.6555   -7.6129   -0.4385 H       1  LIG1        0.1232
     49 H         -13.1496   -3.6576   -0.6874 H       1  LIG1        0.0633
@<TRIPOS>BOND
     1    22    21    1
     2    21    14    1
     3    19    14   ar
     4    19    18   ar
     5    14    15   ar
     6    37    28    1
     7    45    42    1
     8    49    41    1
     9    42    41   ar
    10    42    43   ar
    11    36    33    1
    12    41    40   ar
    13    43    38   ar
    14    31    27    1
    15    28    27   ar
    16    28    29   ar
    17    40    44    1
    18    40    39   ar
    19    38    46    1
    20    38    39   ar
    21    46    47    3
    22    39    29    1
    23    27    26   ar
    24    47    48    1
    25    10     8    1
    26     9     8    1
    27    13    11    1
    28    12    11    1
    29    29    30   ar
    30    26    18    1
    31    26    25   ar
    32    30    25   ar
    33    18    17   ar
    34    25    32    1
    35     2     8    1
    36     2     1   ar
    37     2     3   ar
    38     4    15    1
    39     4     5   ar
    40     4     3   ar
    41     6     5    1
    42    15    16   ar
    43     5     1   ar
    44     1     7    1
    45     3    11    1
    46    32    33    1
    47    33    34    1
    48    33    35    1
    49    17    16   ar
    50    17    23    1
    51    16    20    1
    52    23    24    1
