@<TRIPOS>MOLECULE
mol_data/noopt/geoms/mol2/13hh13hh13hh13hh.out
 50 53 0 0 0
SMALL
GASTEIGER

@<TRIPOS>ATOM
      1 C           1.1215   -0.3259    0.0002 C.ar    1  LIG1        0.0249
      2 C           0.7176    0.9721   -0.0005 C.ar    1  LIG1        0.0637
      3 C          -0.7144    0.9744    0.0003 C.ar    1  LIG1        0.0726
      4 C          -1.1226   -0.3223   -0.0003 C.ar    1  LIG1        0.0875
      5 N          -0.0018   -1.1217    0.0001 N.ar    1  LIG1       -0.3564
      6 H          -0.0034   -2.1157   -0.0003 H       1  LIG1        0.1655
      7 H           2.3167   -0.8373    0.0007 H       1  LIG1        0.0826
      8 N           1.4918    2.0164   -0.0003 N.pl3   1  LIG1       -0.3554
      9 H           2.3463    1.7980   -0.4717 H       1  LIG1        0.1424
     10 H           1.0345    2.7705   -0.4717 H       1  LIG1        0.1424
     11 N          -1.4853    2.0212    0.0010 N.pl3   1  LIG1       -0.3549
     12 H          -1.0256    2.7740   -0.4702 H       1  LIG1        0.1424
     13 H          -2.3405    1.8056   -0.4703 H       1  LIG1        0.1424
     14 C          -2.3194   -0.8299   -0.0001 C.ar    1  LIG1        0.0880
     15 C          -3.5353   -0.2219   -0.0003 C.ar    1  LIG1        0.0733
     16 C          -4.5290   -1.2530    0.0012 C.ar    1  LIG1        0.0733
     17 C          -3.8767   -2.4457    0.0005 C.ar    1  LIG1        0.0880
     18 N          -2.5238   -2.1913    0.0002 N.ar    1  LIG1       -0.3488
     19 H          -1.8081   -2.8811   -0.0004 H       1  LIG1        0.1661
     20 N          -3.7520    1.0599   -0.0003 N.pl3   1  LIG1       -0.3548
     21 H          -3.0025    1.5247   -0.4717 H       1  LIG1        0.1424
     22 H          -4.6126    1.2525   -0.4717 H       1  LIG1        0.1424
     23 N          -5.8180   -1.0837    0.0025 N.pl3   1  LIG1       -0.3548
     24 H          -6.0426   -0.2307   -0.4686 H       1  LIG1        0.1424
     25 H          -6.2552   -1.8497   -0.4686 H       1  LIG1        0.1424
     26 C          -4.3398   -3.6604    0.0012 C.ar    1  LIG1        0.0880
     27 C          -5.6206   -4.1160    0.0013 C.ar    1  LIG1        0.0733
     28 C          -5.5655   -5.5470    0.0033 C.ar    1  LIG1        0.0733
     29 C          -4.2535   -5.9029    0.0026 C.ar    1  LIG1        0.0880
     30 N          -3.4996   -4.7510    0.0018 N.ar    1  LIG1       -0.3488
     31 H          -2.5064   -4.7127    0.0010 H       1  LIG1        0.1661
     32 N          -6.6951   -3.3843    0.0012 N.pl3   1  LIG1       -0.3548
     33 H          -6.5110   -2.5218   -0.4702 H       1  LIG1        0.1424
     34 H          -7.4301   -3.8715   -0.4702 H       1  LIG1        0.1424
     35 N          -6.5805   -6.3592    0.0050 N.pl3   1  LIG1       -0.3548
     36 H          -7.3514   -5.9303   -0.4659 H       1  LIG1        0.1424
     37 H          -6.3312   -7.2053   -0.4660 H       1  LIG1        0.1424
     38 C          -3.6983   -7.0784    0.0036 C.ar    1  LIG1        0.0875
     39 C          -4.2571   -8.3176    0.0039 C.ar    1  LIG1        0.0726
     40 C          -3.1870   -9.2693    0.0063 C.ar    1  LIG1        0.0637
     41 C          -2.0214   -8.5697    0.0055 C.ar    1  LIG1        0.0249
     42 N          -2.3298   -7.2280    0.0043 N.ar    1  LIG1       -0.3564
     43 H          -1.6693   -6.4852    0.0035 H       1  LIG1        0.1655
     44 H          -0.7891   -8.9837    0.0068 H       1  LIG1        0.0826
     45 N          -5.5292   -8.5856    0.0038 N.pl3   1  LIG1       -0.3549
     46 H          -6.0236   -7.8553   -0.4677 H       1  LIG1        0.1424
     47 H          -5.6870   -9.4532   -0.4677 H       1  LIG1        0.1424
     48 N          -3.3045  -10.5640    0.0083 N.pl3   1  LIG1       -0.3554
     49 H          -4.1479  -10.8228   -0.4626 H       1  LIG1        0.1424
     50 H          -2.5216  -10.9704   -0.4626 H       1  LIG1        0.1424
@<TRIPOS>BOND
     1    22    20    1
     2    10     8    1
     3    21    20    1
     4     9     8    1
     5    13    11    1
     6    34    32    1
     7    12    11    1
     8    33    32    1
     9    25    23    1
    10    24    23    1
    11    47    45    1
    12    46    45    1
    13    37    35    1
    14    36    35    1
    15    50    48    1
    16    49    48    1
    17     2     8    1
    18     2     1   ar
    19     2     3   ar
    20    19    18    1
    21    15    20    1
    22    15    14   ar
    23    15    16   ar
    24     6     5    1
    25     4    14    1
    26     4     5   ar
    27     4     3   ar
    28    14    18   ar
    29     5     1   ar
    30    18    17   ar
    31     1     7    1
    32     3    11    1
    33    17    16   ar
    34    17    26    1
    35    31    30    1
    36    16    23    1
    37    26    27   ar
    38    26    30   ar
    39    32    27    1
    40    27    28   ar
    41    30    29   ar
    42    29    28   ar
    43    29    38    1
    44    28    35    1
    45    43    42    1
    46    38    39   ar
    47    38    42   ar
    48    45    39    1
    49    39    40   ar
    50    42    41   ar
    51    41    40   ar
    52    41    44    1
    53    40    48    1
