@<TRIPOS>MOLECULE
mol_data/noopt/geoms/mol2/13hi13hi13hi-13hi-.out
 54 57 0 0 0
SMALL
GASTEIGER

@<TRIPOS>ATOM
      1 C           1.1215   -0.3259    0.0002 C.ar    1  LIG1        0.0233
      2 C           0.7176    0.9721   -0.0005 C.ar    1  LIG1        0.0457
      3 C          -0.7144    0.9744    0.0003 C.ar    1  LIG1       -0.0031
      4 C          -1.1226   -0.3223   -0.0003 C.ar    1  LIG1        0.0695
      5 N          -0.0018   -1.1217    0.0001 N.ar    1  LIG1       -0.3576
      6 H          -0.0034   -2.1157   -0.0003 H       1  LIG1        0.1654
      7 H           2.3167   -0.8373    0.0007 H       1  LIG1        0.0826
      8 N           1.4918    2.0164   -0.0003 N.pl3   1  LIG1       -0.3566
      9 H           2.3463    1.7980   -0.4717 H       1  LIG1        0.1424
     10 H           1.0345    2.7705   -0.4717 H       1  LIG1        0.1424
     11 C          -1.4855    2.0214    0.0010 C.3     1  LIG1       -0.0359
     12 H          -2.4003    1.7904    0.5056 H       1  LIG1        0.0279
     13 H          -1.6974    2.3090   -1.0077 H       1  LIG1        0.0279
     14 H          -0.9933    2.8265    0.5056 H       1  LIG1        0.0279
     15 C          -2.3194   -0.8299   -0.0001 C.ar    1  LIG1        0.0849
     16 C          -3.5353   -0.2219   -0.0003 C.ar    1  LIG1        0.0552
     17 C          -4.5290   -1.2530    0.0012 C.ar    1  LIG1       -0.0024
     18 C          -3.8767   -2.4457    0.0005 C.ar    1  LIG1        0.0699
     19 N          -2.5238   -2.1913    0.0002 N.ar    1  LIG1       -0.3501
     20 H          -1.8081   -2.8811   -0.0004 H       1  LIG1        0.1661
     21 N          -3.7520    1.0599   -0.0003 N.pl3   1  LIG1       -0.3561
     22 H          -3.0025    1.5247   -0.4717 H       1  LIG1        0.1424
     23 H          -4.6126    1.2525   -0.4717 H       1  LIG1        0.1424
     24 C          -5.8182   -1.0837    0.0025 C.3     1  LIG1       -0.0359
     25 H          -6.2852   -1.9035    0.5073 H       1  LIG1        0.0279
     26 H          -6.1729   -1.0372   -1.0060 H       1  LIG1        0.0279
     27 H          -6.0576   -0.1710    0.5072 H       1  LIG1        0.0279
     28 C          -4.3398   -3.6604    0.0012 C.ar    1  LIG1        0.0849
     29 C          -3.6874   -4.8530    0.0012 C.ar    1  LIG1        0.0552
     30 C          -4.6811   -5.8841    0.0032 C.ar    1  LIG1       -0.0024
     31 C          -5.8970   -5.2763    0.0027 C.ar    1  LIG1        0.0699
     32 N          -5.6927   -3.9149    0.0019 N.ar    1  LIG1       -0.3501
     33 H          -6.4084   -3.2251    0.0013 H       1  LIG1        0.1661
     34 N          -2.3984   -5.0223    0.0009 N.pl3   1  LIG1       -0.3561
     35 H          -2.1744   -5.8753   -0.4706 H       1  LIG1        0.1424
     36 H          -1.9617   -4.2562   -0.4706 H       1  LIG1        0.1424
     37 C          -4.4643   -7.1663    0.0049 C.3     1  LIG1       -0.0359
     38 H          -3.5435   -7.3717    0.5097 H       1  LIG1        0.0279
     39 H          -4.4045   -7.5192   -1.0035 H       1  LIG1        0.0279
     40 H          -5.2664   -7.6629    0.5097 H       1  LIG1        0.0279
     41 C          -7.0939   -5.7839    0.0038 C.ar    1  LIG1        0.0844
     42 C          -7.5019   -7.0806    0.0041 C.ar    1  LIG1        0.0546
     43 C          -8.9339   -7.0784    0.0067 C.ar    1  LIG1       -0.0118
     44 C          -9.3380   -5.7804    0.0061 C.ar    1  LIG1        0.0069
     45 N          -8.2146   -4.9846    0.0048 N.ar    1  LIG1       -0.3578
     46 H          -8.2131   -3.9906    0.0040 H       1  LIG1        0.1654
     47 H         -10.5331   -5.2690    0.0075 H       1  LIG1        0.0810
     48 N          -6.7310   -8.1274    0.0038 N.pl3   1  LIG1       -0.3561
     49 H          -7.1908   -8.8799   -0.4677 H       1  LIG1        0.1424
     50 H          -5.8760   -7.9116   -0.4678 H       1  LIG1        0.1424
     51 C          -9.7082   -8.1230    0.0087 C.3     1  LIG1       -0.0365
     52 H          -9.2184   -8.9291    0.5137 H       1  LIG1        0.0279
     53 H          -9.9216   -8.4108   -0.9996 H       1  LIG1        0.0279
     54 H         -10.6220   -7.8885    0.5136 H       1  LIG1        0.0279
@<TRIPOS>BOND
     1    13    11    1
     2    26    24    1
     3    39    37    1
     4    53    51    1
     5    23    21    1
     6    10     8    1
     7    22    21    1
     8     9     8    1
     9    36    34    1
    10    35    34    1
    11    50    48    1
    12    49    48    1
    13     2     8    1
    14     2     1   ar
    15     2     3   ar
    16    20    19    1
    17    16    21    1
    18    16    15   ar
    19    16    17   ar
    20     6     5    1
    21     4    15    1
    22     4     5   ar
    23     4     3   ar
    24    15    19   ar
    25     5     1   ar
    26    19    18   ar
    27     1     7    1
    28     3    11    1
    29    18    17   ar
    30    18    28    1
    31    34    29    1
    32    11    14    1
    33    11    12    1
    34    29    28   ar
    35    29    30   ar
    36    17    24    1
    37    28    32   ar
    38    33    32    1
    39    32    31   ar
    40    24    27    1
    41    24    25    1
    42    31    30   ar
    43    31    41    1
    44    30    37    1
    45    48    42    1
    46    41    42   ar
    47    41    45   ar
    48    46    45    1
    49    42    43   ar
    50    45    44   ar
    51    37    40    1
    52    37    38    1
    53    44    43   ar
    54    44    47    1
    55    43    51    1
    56    51    54    1
    57    51    52    1
