@<TRIPOS>MOLECULE
mol_data/noopt/geoms/mol2/13hi12ed(130)6al(160)13ad(130).out
 47 47 0 0 0
SMALL
GASTEIGER

@<TRIPOS>ATOM
      1 C           1.1215   -0.3259    0.0002 C.ar    1  LIG1        0.0233
      2 C           0.7176    0.9721   -0.0005 C.ar    1  LIG1        0.0457
      3 C          -0.7144    0.9744    0.0003 C.ar    1  LIG1       -0.0015
      4 C          -1.1226   -0.3223   -0.0003 C.ar    1  LIG1        0.0881
      5 N          -0.0018   -1.1217    0.0001 N.ar    1  LIG1       -0.3564
      6 H          -0.0034   -2.1157   -0.0003 H       1  LIG1        0.1655
      7 H           2.3167   -0.8373    0.0007 H       1  LIG1        0.0826
      8 N           1.4918    2.0164   -0.0003 N.pl3   1  LIG1       -0.3566
      9 H           2.3463    1.7980   -0.4717 H       1  LIG1        0.1424
     10 H           1.0345    2.7705   -0.4717 H       1  LIG1        0.1424
     11 C          -1.4855    2.0214    0.0010 C.3     1  LIG1       -0.0359
     12 H          -2.4003    1.7904    0.5056 H       1  LIG1        0.0279
     13 H          -1.6974    2.3090   -1.0077 H       1  LIG1        0.0279
     14 H          -0.9933    2.8265    0.5056 H       1  LIG1        0.0279
     15 C          -2.3194   -0.8299   -0.0001 C.ar    1  LIG1        0.1687
     16 C          -2.9633   -1.8299    0.6987 C.ar    1  LIG1        0.0898
     17 C          -4.3199   -1.8808    0.1948 C.ar    1  LIG1        0.1135
     18 C          -4.4150   -0.9079   -0.7790 C.ar    1  LIG1        0.1559
     19 O          -3.1944   -0.2463   -0.9174 O.2     1  LIG1       -0.4507
     20 C          -2.4729   -2.5919    1.6308 C.1     1  LIG1       -0.0645
     21 C          -2.0198   -3.2960    2.4921 C.1     1  LIG1       -0.1138
     22 H          -1.6161   -3.9232    3.2593 H       1  LIG1        0.1232
     23 N          -6.0675   -3.4142    0.9566 N.1     1  LIG1       -0.1907
     24 C          -5.2485   -2.6956    0.5996 C.1     1  LIG1        0.1042
     25 C          -5.1598    0.6867   -2.3349 C.ar    1  LIG1        0.0389
     26 C          -5.3518   -0.4798   -1.5722 C.ar    1  LIG1        0.0403
     27 C          -6.5652   -1.1604   -1.6888 C.ar    1  LIG1       -0.0009
     28 C          -7.5371   -0.6574   -2.5553 C.ar    1  LIG1        0.2033
     29 C          -7.2516    0.5168   -3.2758 C.ar    1  LIG1        0.1186
     30 N          -6.0865    1.1859   -3.1756 N.ar    1  LIG1       -0.2528
     31 H          -6.7518   -2.0748   -1.1080 H       1  LIG1        0.0664
     32 H          -4.0471    1.3549   -2.2605 H       1  LIG1        0.0837
     33 O          -8.6831   -1.2544   -2.6991 O.3     1  LIG1       -0.2859
     34 C          -9.7265   -0.2780   -2.7519 C.3     2  LIG2       -0.0681
     35 H         -10.6694   -0.7696   -2.8704 H       1  LIG1        0.0227
     36 H          -9.7313    0.2885   -1.8441 H       1  LIG1        0.0227
     37 H          -9.5597    0.3779   -3.5807 H       2  LIG2        0.0309
     38 C          -8.1245    1.0239   -4.0950 C.3     1  LIG1        0.1469
     39 C          -9.4833    1.0074   -4.0569 C.3     3  LIG3       -0.0309
     40 C          -9.9520    1.7158   -5.2098 C.3     1  LIG1        0.1396
     41 C          -8.8590    2.1355   -5.9007 C.2     1  LIG1       -0.0006
     42 N          -7.7381    1.7136   -5.2219 N.2     1  LIG1       -0.3769
     43 H          -6.7989    1.8811   -5.5009 H       1  LIG1        0.1599
     44 H          -8.7691    2.8133   -7.0064 H       1  LIG1        0.0773
     45 H         -10.2183    0.4489   -3.1416 H       1  LIG1        0.0227
     46 N         -12.2872    2.1039   -5.8279 N.1     1  LIG1       -0.1955
     47 C         -11.1928    1.9220   -5.5382 C.1     1  LIG1        0.0789
@<TRIPOS>BOND
     1    44    41    1
     2    41    42    2
     3    41    40    1
     4    46    47    3
     5    47    40    1
     6    43    42    1
     7    42    38    1
     8    38    29    1
     9    39    37    1
    10    29    30   ar
    11    29    28   ar
    12    30    25   ar
    13    45    34    1
    14    35    34    1
    15    34    36    1
    16    33    28    1
    17    28    27   ar
    18    25    32    1
    19    25    26   ar
    20    27    26   ar
    21    27    31    1
    22    26    18    1
    23    13    11    1
    24    19    18   ar
    25    19    15   ar
    26    18    17   ar
    27    10     8    1
    28     9     8    1
    29     2     8    1
    30     2     1   ar
    31     2     3   ar
    32     6     5    1
    33     4    15    1
    34     4     5   ar
    35     4     3   ar
    36    15    16   ar
    37     5     1   ar
    38     1     7    1
    39     3    11    1
    40    11    14    1
    41    11    12    1
    42    17    24    1
    43    17    16   ar
    44    24    23    3
    45    16    20    1
    46    20    21    3
    47    21    22    1
