@<TRIPOS>MOLECULE
mol_data/noopt/geoms/mol2/13hi13hi13hi.out
 41 43 0 0 0
SMALL
GASTEIGER

@<TRIPOS>ATOM
      1 C           1.1215   -0.3259    0.0002 C.ar    1  LIG1        0.0233
      2 C           0.7176    0.9721   -0.0005 C.ar    1  LIG1        0.0457
      3 C          -0.7144    0.9744    0.0003 C.ar    1  LIG1       -0.0031
      4 C          -1.1226   -0.3223   -0.0003 C.ar    1  LIG1        0.0695
      5 N          -0.0018   -1.1217    0.0001 N.ar    1  LIG1       -0.3576
      6 H          -0.0034   -2.1157   -0.0003 H       1  LIG1        0.1654
      7 H           2.3167   -0.8373    0.0007 H       1  LIG1        0.0826
      8 N           1.4918    2.0164   -0.0003 N.pl3   1  LIG1       -0.3566
      9 H           2.3463    1.7980   -0.4717 H       1  LIG1        0.1424
     10 H           1.0345    2.7705   -0.4717 H       1  LIG1        0.1424
     11 C          -1.4855    2.0214    0.0010 C.3     1  LIG1       -0.0359
     12 H          -2.4003    1.7904    0.5056 H       1  LIG1        0.0279
     13 H          -1.6974    2.3090   -1.0077 H       1  LIG1        0.0279
     14 H          -0.9933    2.8265    0.5056 H       1  LIG1        0.0279
     15 C          -2.3194   -0.8299   -0.0001 C.ar    1  LIG1        0.0849
     16 C          -3.5353   -0.2219   -0.0003 C.ar    1  LIG1        0.0552
     17 C          -4.5290   -1.2530    0.0012 C.ar    1  LIG1       -0.0024
     18 C          -3.8767   -2.4457    0.0005 C.ar    1  LIG1        0.0699
     19 N          -2.5238   -2.1913    0.0002 N.ar    1  LIG1       -0.3501
     20 H          -1.8081   -2.8811   -0.0004 H       1  LIG1        0.1661
     21 N          -3.7520    1.0599   -0.0003 N.pl3   1  LIG1       -0.3561
     22 H          -3.0025    1.5247   -0.4717 H       1  LIG1        0.1424
     23 H          -4.6126    1.2525   -0.4717 H       1  LIG1        0.1424
     24 C          -5.8182   -1.0837    0.0025 C.3     1  LIG1       -0.0359
     25 H          -6.2852   -1.9035    0.5073 H       1  LIG1        0.0279
     26 H          -6.1729   -1.0372   -1.0060 H       1  LIG1        0.0279
     27 H          -6.0576   -0.1710    0.5072 H       1  LIG1        0.0279
     28 C          -4.3398   -3.6604    0.0012 C.ar    1  LIG1        0.0844
     29 C          -5.6206   -4.1160    0.0013 C.ar    1  LIG1        0.0546
     30 C          -5.5655   -5.5470    0.0033 C.ar    1  LIG1       -0.0118
     31 C          -4.2535   -5.9029    0.0026 C.ar    1  LIG1        0.0069
     32 N          -3.4996   -4.7510    0.0018 N.ar    1  LIG1       -0.3578
     33 H          -2.5064   -4.7127    0.0010 H       1  LIG1        0.1654
     34 H          -3.6983   -7.0784    0.0036 H       1  LIG1        0.0810
     35 N          -6.6951   -3.3843    0.0012 N.pl3   1  LIG1       -0.3561
     36 H          -6.5110   -2.5218   -0.4702 H       1  LIG1        0.1424
     37 H          -7.4301   -3.8715   -0.4702 H       1  LIG1        0.1424
     38 C          -6.5808   -6.3594    0.0050 C.3     1  LIG1       -0.0365
     39 H          -6.3129   -7.2640    0.5099 H       1  LIG1        0.0279
     40 H          -6.8603   -6.5831   -1.0034 H       1  LIG1        0.0279
     41 H          -7.4046   -5.8996    0.5099 H       1  LIG1        0.0279
@<TRIPOS>BOND
     1    13    11    1
     2    26    24    1
     3    40    38    1
     4    23    21    1
     5    10     8    1
     6    22    21    1
     7     9     8    1
     8    37    35    1
     9    36    35    1
    10     2     8    1
    11     2     1   ar
    12     2     3   ar
    13    20    19    1
    14    16    21    1
    15    16    15   ar
    16    16    17   ar
    17     6     5    1
    18     4    15    1
    19     4     5   ar
    20     4     3   ar
    21    15    19   ar
    22     5     1   ar
    23    19    18   ar
    24     1     7    1
    25     3    11    1
    26    18    17   ar
    27    18    28    1
    28    33    32    1
    29    11    14    1
    30    11    12    1
    31    17    24    1
    32    28    29   ar
    33    28    32   ar
    34    35    29    1
    35    29    30   ar
    36    32    31   ar
    37    24    27    1
    38    24    25    1
    39    31    30   ar
    40    31    34    1
    41    30    38    1
    42    38    41    1
    43    38    39    1
