@<TRIPOS>MOLECULE
mol_data/noopt/geoms/mol2/13hi13hi-4hi13hi.out
 56 59 0 0 0
SMALL
GASTEIGER

@<TRIPOS>ATOM
      1 C           1.1215   -0.3259    0.0002 C.ar    1  LIG1        0.0233
      2 C           0.7176    0.9721   -0.0005 C.ar    1  LIG1        0.0457
      3 C          -0.7144    0.9744    0.0003 C.ar    1  LIG1       -0.0031
      4 C          -1.1226   -0.3223   -0.0003 C.ar    1  LIG1        0.0694
      5 N          -0.0018   -1.1217    0.0001 N.ar    1  LIG1       -0.3576
      6 H          -0.0034   -2.1157   -0.0003 H       1  LIG1        0.1654
      7 H           2.3167   -0.8373    0.0007 H       1  LIG1        0.0826
      8 N           1.4918    2.0164   -0.0003 N.pl3   1  LIG1       -0.3566
      9 H           2.3463    1.7980   -0.4717 H       1  LIG1        0.1424
     10 H           1.0345    2.7705   -0.4717 H       1  LIG1        0.1424
     11 C          -1.4855    2.0214    0.0010 C.3     1  LIG1       -0.0359
     12 H          -2.4003    1.7904    0.5056 H       1  LIG1        0.0279
     13 H          -1.6974    2.3090   -1.0077 H       1  LIG1        0.0279
     14 H          -0.9933    2.8265    0.5056 H       1  LIG1        0.0279
     15 C          -2.3194   -0.8299   -0.0001 C.ar    1  LIG1        0.0848
     16 C          -2.7274   -2.1266   -0.0005 C.ar    1  LIG1        0.0552
     17 C          -4.1594   -2.1244    0.0011 C.ar    1  LIG1       -0.0038
     18 C          -4.5635   -0.8264    0.0006 C.ar    1  LIG1        0.0535
     19 N          -3.4402   -0.0305    0.0003 N.ar    1  LIG1       -0.3513
     20 H          -3.4386    0.9635   -0.0001 H       1  LIG1        0.1660
     21 N          -1.9565   -3.1734   -0.0006 N.pl3   1  LIG1       -0.3561
     22 H          -2.4164   -3.9259   -0.4720 H       1  LIG1        0.1424
     23 H          -1.1015   -2.9576   -0.4721 H       1  LIG1        0.1424
     24 C          -4.9338   -3.1690    0.0023 C.3     1  LIG1       -0.0359
     25 H          -4.4441   -3.9754    0.5071 H       1  LIG1        0.0279
     26 H          -5.1467   -3.4563   -1.0062 H       1  LIG1        0.0279
     27 H          -5.8478   -2.9348    0.5070 H       1  LIG1        0.0279
     28 C          -5.9236    1.0852    0.0026 C.ar    1  LIG1        0.0344
     29 C          -7.2385    1.5895    0.0050 C.ar    1  LIG1       -0.0310
     30 C          -5.7587   -0.3150    0.0014 C.ar    1  LIG1        0.0195
     31 C          -8.3419    0.7391    0.0056 C.ar    1  LIG1        0.0048
     32 H          -7.3885    2.6668    0.0062 H       1  LIG1        0.0643
     33 C          -6.8598   -1.1644    0.0020 C.ar    1  LIG1       -0.0473
     34 C          -8.1582   -0.6442    0.0040 C.ar    1  LIG1       -0.0406
     35 H          -6.7065   -2.2406    0.0011 H       1  LIG1        0.0627
     36 N          -4.9342    1.9285    0.0020 N.pl3   1  LIG1       -0.3574
     37 H          -4.1511    1.5232   -0.4696 H       1  LIG1        0.1423
     38 H          -5.2104    2.7660   -0.4697 H       1  LIG1        0.1423
     39 C          -9.1840   -1.4433    0.0046 C.3     1  LIG1       -0.0391
     40 H          -8.9283   -2.3515    0.5093 H       1  LIG1        0.0278
     41 H          -9.4658   -1.6628   -1.0040 H       1  LIG1        0.0278
     42 H         -10.0021   -0.9730    0.5092 H       1  LIG1        0.0278
     43 C          -9.5420    1.2389    0.0077 C.ar    1  LIG1        0.0680
     44 C          -9.9585    2.5329    0.0088 C.ar    1  LIG1        0.0531
     45 C         -11.3904    2.5213    0.0122 C.ar    1  LIG1       -0.0119
     46 C         -11.7860    1.2207    0.0113 C.ar    1  LIG1        0.0069
     47 N         -10.6575    0.4322    0.0090 N.ar    1  LIG1       -0.3589
     48 H         -10.6495   -0.5617    0.0079 H       1  LIG1        0.1654
     49 H         -12.9778    0.7015    0.0134 H       1  LIG1        0.0810
     50 N          -9.1944    3.5847    0.0084 N.pl3   1  LIG1       -0.3561
     51 H          -8.3380    3.3744   -0.4631 H       1  LIG1        0.1424
     52 H          -9.6591    4.3341   -0.4632 H       1  LIG1        0.1424
     53 C         -12.1716    3.5608    0.0152 C.3     1  LIG1       -0.0365
     54 H         -13.0836    3.3202    0.5204 H       1  LIG1        0.0279
     55 H         -12.3873    3.8478   -0.9929 H       1  LIG1        0.0279
     56 H         -11.6867    4.3699    0.5203 H       1  LIG1        0.0279
@<TRIPOS>BOND
     1    13    11    1
     2    26    24    1
     3    41    39    1
     4    55    53    1
     5    23    21    1
     6    22    21    1
     7    10     8    1
     8     9     8    1
     9    38    36    1
    10    37    36    1
    11    52    50    1
    12    51    50    1
    13    21    16    1
    14     2     8    1
    15     2     1   ar
    16     2     3   ar
    17    16    15   ar
    18    16    17   ar
    19     6     5    1
    20     4    15    1
    21     4     5   ar
    22     4     3   ar
    23    20    19    1
    24    15    19   ar
    25     5     1   ar
    26     1     7    1
    27     3    11    1
    28    19    18   ar
    29    18    17   ar
    30    18    30    1
    31    11    14    1
    32    11    12    1
    33    17    24    1
    34    35    33    1
    35    30    33   ar
    36    30    28   ar
    37    36    28    1
    38    33    34   ar
    39    24    27    1
    40    24    25    1
    41    28    29   ar
    42    34    39    1
    43    34    31   ar
    44    39    42    1
    45    39    40    1
    46    29    31   ar
    47    29    32    1
    48    31    43    1
    49    43    44   ar
    50    43    47   ar
    51    48    47    1
    52    50    44    1
    53    44    45   ar
    54    47    46   ar
    55    46    45   ar
    56    46    49    1
    57    45    53    1
    58    53    56    1
    59    53    54    1
