@<TRIPOS>MOLECULE
mol_data/noopt/geoms/mol2/13hi6aa-6ff-4al-.out
 49 52 0 0 0
SMALL
GASTEIGER

@<TRIPOS>ATOM
      1 C           1.1215   -0.3259    0.0002 C.ar    1  LIG1        0.0233
      2 C           0.7176    0.9721   -0.0005 C.ar    1  LIG1        0.0456
      3 C          -0.7144    0.9744    0.0003 C.ar    1  LIG1       -0.0045
      4 C          -1.1226   -0.3223   -0.0003 C.ar    1  LIG1        0.0527
      5 N          -0.0018   -1.1217    0.0001 N.ar    1  LIG1       -0.3588
      6 H          -0.0034   -2.1157   -0.0003 H       1  LIG1        0.1654
      7 H           2.3167   -0.8373    0.0007 H       1  LIG1        0.0826
      8 N           1.4918    2.0164   -0.0003 N.pl3   1  LIG1       -0.3566
      9 H           2.3463    1.7980   -0.4717 H       1  LIG1        0.1424
     10 H           1.0345    2.7705   -0.4717 H       1  LIG1        0.1424
     11 C          -1.4855    2.0214    0.0010 C.3     1  LIG1       -0.0360
     12 H          -2.4003    1.7904    0.5056 H       1  LIG1        0.0279
     13 H          -1.6974    2.3090   -1.0077 H       1  LIG1        0.0279
     14 H          -0.9933    2.8265    0.5056 H       1  LIG1        0.0279
     15 C          -2.5002   -2.2250   -0.0210 C.ar    1  LIG1        0.0374
     16 C          -2.3194   -0.8299   -0.0001 C.ar    1  LIG1        0.0167
     17 C          -3.4501   -0.0114    0.0210 C.ar    1  LIG1       -0.0491
     18 C          -4.7120   -0.6083    0.0204 C.ar    1  LIG1       -0.0349
     19 C          -4.7903   -2.0130   -0.0016 C.ar    1  LIG1        0.0762
     20 N          -3.7099   -2.8177   -0.0220 N.ar    1  LIG1       -0.2542
     21 H          -3.3484    1.0830    0.0367 H       1  LIG1        0.0625
     22 H          -1.4783   -3.0283   -0.0410 H       1  LIG1        0.0836
     23 H          -5.7953    0.1100    0.0393 H       1  LIG1        0.0639
     24 C          -6.0101   -4.0204   -0.0248 C.ar    1  LIG1        0.2225
     25 C          -5.9423   -2.6153   -0.0030 C.ar    1  LIG1        0.0652
     26 C          -7.1354   -1.8905    0.0172 C.ar    1  LIG1       -0.0038
     27 C          -8.3450   -2.5872    0.0148 C.ar    1  LIG1        0.1436
     28 C          -8.3099   -3.9935   -0.0080 C.ar    1  LIG1        0.1162
     29 N          -7.1682   -4.7086   -0.0275 N.ar    1  LIG1       -0.2088
     30 H          -7.1221   -0.7915    0.0335 H       1  LIG1        0.0663
     31 O          -4.9268   -4.7388   -0.0440 O.3     1  LIG1       -0.4919
     32 H          -4.1597   -4.1617   -0.0488 H       1  LIG1        0.2937
     33 O          -9.4827   -1.9584    0.0329 O.3     1  LIG1       -0.5046
     34 H         -10.2009   -2.5955    0.0373 H       1  LIG1        0.2922
     35 C         -10.6557   -4.0272    0.0094 C.ar    1  LIG1       -0.0522
     36 C         -11.8176   -4.8230    0.0067 C.ar    1  LIG1       -0.0577
     37 C          -9.4097   -4.6866   -0.0110 C.ar    1  LIG1        0.0075
     38 C         -11.7445   -6.2139   -0.0160 C.ar    1  LIG1       -0.0199
     39 H         -12.7894   -4.3346    0.0224 H       1  LIG1        0.0619
     40 C          -9.3361   -6.0752   -0.0337 C.ar    1  LIG1       -0.0107
     41 C         -10.5018   -6.8483   -0.0364 C.ar    1  LIG1        0.1207
     42 H          -8.3634   -6.5602   -0.0491 H       1  LIG1        0.0661
     43 H         -12.8375   -6.9178   -0.0180 H       1  LIG1        0.0654
     44 H         -10.7877   -2.7341    0.0308 H       1  LIG1        0.0624
     45 O         -10.4269   -8.1461   -0.0575 O.3     1  LIG1       -0.4951
     46 C         -11.7452   -8.7002   -0.0653 C.3     1  LIG1        0.0788
     47 H         -11.6830   -9.7682   -0.0828 H       1  LIG1        0.0660
     48 H         -12.2686   -8.3877    0.8141 H       1  LIG1        0.0660
     49 H         -12.2703   -8.3592   -0.9329 H       1  LIG1        0.0660
@<TRIPOS>BOND
     1    13    11    1
     2    49    46    1
     3    10     8    1
     4     9     8    1
     5    47    46    1
     6    46    45    1
     7    46    48    1
     8    45    41    1
     9    42    40    1
    10    32    31    1
    11    31    24    1
    12    22    15    1
    13    41    40   ar
    14    41    38   ar
    15    40    37   ar
    16    29    24   ar
    17    29    28   ar
    18    24    25   ar
    19    20    15   ar
    20    20    19   ar
    21    15    16   ar
    22    43    38    1
    23    38    36   ar
    24    37    28    1
    25    37    35   ar
    26    28    27   ar
    27    25    19    1
    28    25    26   ar
    29    19    18   ar
    30     2     8    1
    31     2     1   ar
    32     2     3   ar
    33     4    16    1
    34     4     5   ar
    35     4     3   ar
    36     6     5    1
    37    16    17   ar
    38     5     1   ar
    39     1     7    1
    40     3    11    1
    41    11    14    1
    42    11    12    1
    43    36    35   ar
    44    36    39    1
    45    35    44    1
    46    27    26   ar
    47    27    33    1
    48    26    30    1
    49    18    17   ar
    50    18    23    1
    51    17    21    1
    52    33    34    1
