@<TRIPOS>MOLECULE
mol_data/noopt/geoms/mol2/13hi13hi-13hi-13hi.out
 54 57 0 0 0
SMALL
GASTEIGER

@<TRIPOS>ATOM
      1 C           1.1215   -0.3259    0.0002 C.ar    1  LIG1        0.0233
      2 C           0.7176    0.9721   -0.0005 C.ar    1  LIG1        0.0457
      3 C          -0.7144    0.9744    0.0003 C.ar    1  LIG1       -0.0031
      4 C          -1.1226   -0.3223   -0.0003 C.ar    1  LIG1        0.0695
      5 N          -0.0018   -1.1217    0.0001 N.ar    1  LIG1       -0.3576
      6 H          -0.0034   -2.1157   -0.0003 H       1  LIG1        0.1654
      7 H           2.3167   -0.8373    0.0007 H       1  LIG1        0.0826
      8 N           1.4918    2.0164   -0.0003 N.pl3   1  LIG1       -0.3566
      9 H           2.3463    1.7980   -0.4717 H       1  LIG1        0.1424
     10 H           1.0345    2.7705   -0.4717 H       1  LIG1        0.1424
     11 C          -1.4855    2.0214    0.0010 C.3     1  LIG1       -0.0359
     12 H          -2.4003    1.7904    0.5056 H       1  LIG1        0.0279
     13 H          -1.6974    2.3090   -1.0077 H       1  LIG1        0.0279
     14 H          -0.9933    2.8265    0.5056 H       1  LIG1        0.0279
     15 C          -2.3194   -0.8299   -0.0001 C.ar    1  LIG1        0.0849
     16 C          -2.7274   -2.1266   -0.0005 C.ar    1  LIG1        0.0552
     17 C          -4.1594   -2.1244    0.0011 C.ar    1  LIG1       -0.0024
     18 C          -4.5635   -0.8264    0.0006 C.ar    1  LIG1        0.0699
     19 N          -3.4402   -0.0305    0.0003 N.ar    1  LIG1       -0.3501
     20 H          -3.4386    0.9635   -0.0001 H       1  LIG1        0.1661
     21 N          -1.9565   -3.1734   -0.0006 N.pl3   1  LIG1       -0.3561
     22 H          -2.4164   -3.9259   -0.4720 H       1  LIG1        0.1424
     23 H          -1.1015   -2.9576   -0.4721 H       1  LIG1        0.1424
     24 C          -4.9338   -3.1690    0.0023 C.3     1  LIG1       -0.0359
     25 H          -4.4441   -3.9754    0.5071 H       1  LIG1        0.0279
     26 H          -5.1467   -3.4563   -1.0062 H       1  LIG1        0.0279
     27 H          -5.8478   -2.9348    0.5070 H       1  LIG1        0.0279
     28 C          -5.7587   -0.3150    0.0014 C.ar    1  LIG1        0.0849
     29 C          -6.9765   -0.9191    0.0015 C.ar    1  LIG1        0.0552
     30 C          -7.9670    0.1151    0.0037 C.ar    1  LIG1       -0.0024
     31 C          -7.3109    1.3057    0.0031 C.ar    1  LIG1        0.0699
     32 N          -5.9587    1.0470    0.0022 N.ar    1  LIG1       -0.3501
     33 H          -5.2408    1.7345    0.0016 H       1  LIG1        0.1661
     34 N          -7.1973   -2.2002    0.0012 N.pl3   1  LIG1       -0.3561
     35 H          -8.0585   -2.3899   -0.4703 H       1  LIG1        0.1424
     36 H          -6.4493   -2.6673   -0.4703 H       1  LIG1        0.1424
     37 C          -9.2567   -0.0501    0.0054 C.3     1  LIG1       -0.0359
     38 H          -9.4988   -0.9619    0.5103 H       1  LIG1        0.0279
     39 H          -9.6119   -0.0957   -1.0029 H       1  LIG1        0.0279
     40 H          -9.7208    0.7712    0.5103 H       1  LIG1        0.0279
     41 C          -7.7701    2.5219    0.0044 C.ar    1  LIG1        0.0844
     42 C          -7.1139    3.7125    0.0049 C.ar    1  LIG1        0.0546
     43 C          -8.1043    4.7467    0.0074 C.ar    1  LIG1       -0.0118
     44 C          -9.3222    4.1427    0.0066 C.ar    1  LIG1        0.0069
     45 N          -9.1222    2.7807    0.0052 N.ar    1  LIG1       -0.3578
     46 H          -9.8401    2.0932    0.0043 H       1  LIG1        0.1654
     47 H         -10.5174    4.6541    0.0080 H       1  LIG1        0.0810
     48 N          -5.8244    3.8776    0.0047 N.pl3   1  LIG1       -0.3561
     49 H          -5.3901    3.1101   -0.4668 H       1  LIG1        0.1424
     50 H          -5.5976    4.7298   -0.4668 H       1  LIG1        0.1424
     51 C          -7.8835    6.0281    0.0096 C.3     1  LIG1       -0.0365
     52 H          -8.6840    6.5272    0.5146 H       1  LIG1        0.0279
     53 H          -7.8227    6.3813   -0.9986 H       1  LIG1        0.0279
     54 H          -6.9620    6.2303    0.5146 H       1  LIG1        0.0279
@<TRIPOS>BOND
     1    13    11    1
     2    26    24    1
     3    39    37    1
     4    53    51    1
     5    23    21    1
     6    22    21    1
     7    10     8    1
     8     9     8    1
     9    36    34    1
    10    35    34    1
    11    50    48    1
    12    49    48    1
    13    21    16    1
    14     2     8    1
    15     2     1   ar
    16     2     3   ar
    17    16    15   ar
    18    16    17   ar
    19     6     5    1
    20     4    15    1
    21     4     5   ar
    22     4     3   ar
    23    20    19    1
    24    15    19   ar
    25     5     1   ar
    26     1     7    1
    27     3    11    1
    28    19    18   ar
    29    18    17   ar
    30    18    28    1
    31    11    14    1
    32    11    12    1
    33    17    24    1
    34    34    29    1
    35    28    29   ar
    36    28    32   ar
    37    29    30   ar
    38    33    32    1
    39    32    31   ar
    40    24    27    1
    41    24    25    1
    42    31    30   ar
    43    31    41    1
    44    30    37    1
    45    46    45    1
    46    41    42   ar
    47    41    45   ar
    48    48    42    1
    49    42    43   ar
    50    45    44   ar
    51    37    40    1
    52    37    38    1
    53    44    43   ar
    54    44    47    1
    55    43    51    1
    56    51    54    1
    57    51    52    1
