@<TRIPOS>MOLECULE
mol_data/noopt/geoms/mol2/13hi13di(310)12hl(60)12ah(100).out
 49 52 0 0 0
SMALL
GASTEIGER

@<TRIPOS>ATOM
      1 C           1.1215   -0.3259    0.0002 C.ar    1  LIG1        0.0233
      2 C           0.7176    0.9721   -0.0005 C.ar    1  LIG1        0.0457
      3 C          -0.7144    0.9744    0.0003 C.ar    1  LIG1       -0.0031
      4 C          -1.1226   -0.3223   -0.0003 C.ar    1  LIG1        0.0689
      5 N          -0.0018   -1.1217    0.0001 N.ar    1  LIG1       -0.3576
      6 H          -0.0034   -2.1157   -0.0003 H       1  LIG1        0.1654
      7 H           2.3167   -0.8373    0.0007 H       1  LIG1        0.0826
      8 N           1.4918    2.0164   -0.0003 N.pl3   1  LIG1       -0.3566
      9 H           2.3463    1.7980   -0.4717 H       1  LIG1        0.1424
     10 H           1.0345    2.7705   -0.4717 H       1  LIG1        0.1424
     11 C          -1.4855    2.0214    0.0010 C.3     1  LIG1       -0.0359
     12 H          -2.4003    1.7904    0.5056 H       1  LIG1        0.0279
     13 H          -1.6974    2.3090   -1.0077 H       1  LIG1        0.0279
     14 H          -0.9933    2.8265    0.5056 H       1  LIG1        0.0279
     15 C          -2.3194   -0.8299   -0.0001 C.ar    1  LIG1        0.0815
     16 C          -3.4035   -0.5329   -0.7646 C.ar    1  LIG1        0.0820
     17 C          -4.4691   -1.3945   -0.3488 C.ar    1  LIG1       -0.0041
     18 C          -3.9887   -2.1814    0.6503 C.ar    1  LIG1        0.0888
     19 N          -2.6731   -1.8387    0.8672 N.ar    1  LIG1       -0.3493
     20 H          -2.0737   -2.2542    1.5425 H       1  LIG1        0.1661
     21 N          -3.5086    1.1648   -2.5232 N.1     1  LIG1       -0.1908
     22 C          -3.4593    0.3692   -1.6990 C.1     1  LIG1        0.1016
     23 C          -5.6747   -1.4224   -0.8350 C.3     1  LIG1       -0.0364
     24 H          -6.1738   -2.3078   -0.5006 H       1  LIG1        0.0279
     25 H          -5.6283   -1.4214   -1.9041 H       1  LIG1        0.0279
     26 H          -6.2142   -0.5610   -0.5006 H       1  LIG1        0.0279
     27 C          -4.5713   -3.1142    1.3435 C.ar    1  LIG1        0.1765
     28 C          -5.2353   -3.1724    2.5512 C.ar    1  LIG1        0.1155
     29 C          -5.6426   -4.5499    2.7346 C.ar    1  LIG1        0.1902
     30 C          -5.2003   -5.2423    1.6262 C.ar    1  LIG1        0.2139
     31 O          -4.5369   -4.3787    0.7539 O.2     1  LIG1       -0.4445
     32 N          -5.4644   -2.1983    3.3811 N.pl3   1  LIG1       -0.3521
     33 H          -4.7972   -1.4687    3.2309 H       1  LIG1        0.1425
     34 H          -6.3868   -1.8425    3.2309 H       1  LIG1        0.1425
     35 O          -6.2977   -5.0167    3.7559 O.3     1  LIG1       -0.4896
     36 C          -7.3206   -4.0903    4.1308 C.3     1  LIG1        0.0791
     37 H          -7.8596   -4.4750    4.9713 H       1  LIG1        0.0660
     38 H          -6.8749   -3.1531    4.3915 H       1  LIG1        0.0660
     39 H          -7.9926   -3.9496    3.3102 H       1  LIG1        0.0660
     40 C          -5.2581   -6.4761    1.2209 C.ar    1  LIG1        0.1752
     41 C          -5.1250   -7.7138    1.8155 C.ar    1  LIG1        0.0081
     42 C          -5.3090   -8.6983    0.7697 C.ar    1  LIG1        0.0635
     43 C          -5.5426   -7.9966   -0.3951 C.ar    1  LIG1        0.1133
     44 O          -5.5163   -6.6247   -0.1425 O.2     1  LIG1       -0.4578
     45 H          -5.7744   -8.3109   -1.6351 H       1  LIG1        0.1049
     46 H          -4.8821   -7.9738    3.0658 H       1  LIG1        0.0675
     47 N          -5.2588   -9.9879    0.9259 N.pl3   1  LIG1       -0.3555
     48 H          -6.0596  -10.4070    0.4979 H       1  LIG1        0.1424
     49 H          -4.4279  -10.3434    0.4979 H       1  LIG1        0.1424
@<TRIPOS>BOND
     1    21    22    3
     2    25    23    1
     3    22    16    1
     4    45    43    1
     5    13    11    1
     6    23    26    1
     7    23    24    1
     8    23    17    1
     9    16    17   ar
    10    16    15   ar
    11    10     8    1
    12     9     8    1
    13    43    44   ar
    14    43    42   ar
    15    17    18   ar
    16    44    40   ar
    17     2     8    1
    18     2     1   ar
    19     2     3   ar
    20     6     5    1
    21     4    15    1
    22     4     5   ar
    23     4     3   ar
    24    15    19   ar
    25     5     1   ar
    26     1     7    1
    27     3    11    1
    28    11    14    1
    29    11    12    1
    30    49    47    1
    31    48    47    1
    32    18    19   ar
    33    18    27    1
    34    31    27   ar
    35    31    30   ar
    36    42    47    1
    37    42    41   ar
    38    19    20    1
    39    40    30    1
    40    40    41   ar
    41    27    28   ar
    42    30    29   ar
    43    41    46    1
    44    28    29   ar
    45    28    32    1
    46    29    35    1
    47    34    32    1
    48    33    32    1
    49    39    36    1
    50    35    36    1
    51    36    38    1
    52    36    37    1
