@<TRIPOS>MOLECULE
mol_data/noopt/geoms/mol2/13hi13hi-13hi.out
 41 43 0 0 0
SMALL
GASTEIGER

@<TRIPOS>ATOM
      1 C           1.1215   -0.3259    0.0002 C.ar    1  LIG1        0.0233
      2 C           0.7176    0.9721   -0.0005 C.ar    1  LIG1        0.0457
      3 C          -0.7144    0.9744    0.0003 C.ar    1  LIG1       -0.0031
      4 C          -1.1226   -0.3223   -0.0003 C.ar    1  LIG1        0.0695
      5 N          -0.0018   -1.1217    0.0001 N.ar    1  LIG1       -0.3576
      6 H          -0.0034   -2.1157   -0.0003 H       1  LIG1        0.1654
      7 H           2.3167   -0.8373    0.0007 H       1  LIG1        0.0826
      8 N           1.4918    2.0164   -0.0003 N.pl3   1  LIG1       -0.3566
      9 H           2.3463    1.7980   -0.4717 H       1  LIG1        0.1424
     10 H           1.0345    2.7705   -0.4717 H       1  LIG1        0.1424
     11 C          -1.4855    2.0214    0.0010 C.3     1  LIG1       -0.0359
     12 H          -2.4003    1.7904    0.5056 H       1  LIG1        0.0279
     13 H          -1.6974    2.3090   -1.0077 H       1  LIG1        0.0279
     14 H          -0.9933    2.8265    0.5056 H       1  LIG1        0.0279
     15 C          -2.3194   -0.8299   -0.0001 C.ar    1  LIG1        0.0849
     16 C          -2.7274   -2.1266   -0.0005 C.ar    1  LIG1        0.0552
     17 C          -4.1594   -2.1244    0.0011 C.ar    1  LIG1       -0.0024
     18 C          -4.5635   -0.8264    0.0006 C.ar    1  LIG1        0.0699
     19 N          -3.4402   -0.0305    0.0003 N.ar    1  LIG1       -0.3501
     20 H          -3.4386    0.9635   -0.0001 H       1  LIG1        0.1661
     21 N          -1.9565   -3.1734   -0.0006 N.pl3   1  LIG1       -0.3561
     22 H          -2.4164   -3.9259   -0.4720 H       1  LIG1        0.1424
     23 H          -1.1015   -2.9576   -0.4721 H       1  LIG1        0.1424
     24 C          -4.9338   -3.1690    0.0023 C.3     1  LIG1       -0.0359
     25 H          -4.4441   -3.9754    0.5071 H       1  LIG1        0.0279
     26 H          -5.1467   -3.4563   -1.0062 H       1  LIG1        0.0279
     27 H          -5.8478   -2.9348    0.5070 H       1  LIG1        0.0279
     28 C          -5.7587   -0.3150    0.0014 C.ar    1  LIG1        0.0844
     29 C          -6.1626    0.9830    0.0016 C.ar    1  LIG1        0.0546
     30 C          -7.5946    0.9853    0.0038 C.ar    1  LIG1       -0.0118
     31 C          -8.0028   -0.3114    0.0030 C.ar    1  LIG1        0.0069
     32 N          -6.8820   -1.1108    0.0021 N.ar    1  LIG1       -0.3578
     33 H          -6.8836   -2.1048    0.0013 H       1  LIG1        0.1654
     34 H          -9.1996   -0.8190    0.0041 H       1  LIG1        0.0810
     35 N          -5.3884    2.0273    0.0015 N.pl3   1  LIG1       -0.3561
     36 H          -4.5340    1.8088   -0.4699 H       1  LIG1        0.1424
     37 H          -5.8458    2.7813   -0.4699 H       1  LIG1        0.1424
     38 C          -8.3657    2.0323    0.0056 C.3     1  LIG1       -0.0365
     39 H          -9.2802    1.8009    0.5105 H       1  LIG1        0.0279
     40 H          -8.5781    2.3207   -1.0028 H       1  LIG1        0.0279
     41 H          -7.8732    2.8370    0.5105 H       1  LIG1        0.0279
@<TRIPOS>BOND
     1    13    11    1
     2    26    24    1
     3    40    38    1
     4    23    21    1
     5    22    21    1
     6    10     8    1
     7     9     8    1
     8    37    35    1
     9    36    35    1
    10    21    16    1
    11     2     8    1
    12     2     1   ar
    13     2     3   ar
    14    16    15   ar
    15    16    17   ar
    16     4    15    1
    17     4     5   ar
    18     4     3   ar
    19     6     5    1
    20    20    19    1
    21    15    19   ar
    22     5     1   ar
    23     1     7    1
    24     3    11    1
    25    19    18   ar
    26    18    17   ar
    27    18    28    1
    28    11    14    1
    29    11    12    1
    30    17    24    1
    31    33    32    1
    32    28    29   ar
    33    28    32   ar
    34    35    29    1
    35    29    30   ar
    36    32    31   ar
    37    24    27    1
    38    24    25    1
    39    31    30   ar
    40    31    34    1
    41    30    38    1
    42    38    41    1
    43    38    39    1
