@<TRIPOS>MOLECULE
mol_data/noopt/geoms/mol2/13hi6ef-12dh-12fe-.out
 47 50 0 0 0
SMALL
GASTEIGER

@<TRIPOS>ATOM
      1 C           1.1215   -0.3259    0.0002 C.ar    1  LIG1        0.0233
      2 C           0.7176    0.9721   -0.0005 C.ar    1  LIG1        0.0456
      3 C          -0.7144    0.9744    0.0003 C.ar    1  LIG1       -0.0045
      4 C          -1.1226   -0.3223   -0.0003 C.ar    1  LIG1        0.0540
      5 N          -0.0018   -1.1217    0.0001 N.ar    1  LIG1       -0.3587
      6 H          -0.0034   -2.1157   -0.0003 H       1  LIG1        0.1654
      7 H           2.3167   -0.8373    0.0007 H       1  LIG1        0.0826
      8 N           1.4918    2.0164   -0.0003 N.pl3   1  LIG1       -0.3566
      9 H           2.3463    1.7980   -0.4717 H       1  LIG1        0.1424
     10 H           1.0345    2.7705   -0.4717 H       1  LIG1        0.1424
     11 C          -1.4855    2.0214    0.0010 C.3     1  LIG1       -0.0360
     12 H          -2.4003    1.7904    0.5056 H       1  LIG1        0.0279
     13 H          -1.6974    2.3090   -1.0077 H       1  LIG1        0.0279
     14 H          -0.9933    2.8265    0.5056 H       1  LIG1        0.0279
     15 C          -2.5002   -2.2250   -0.0210 C.ar    1  LIG1        0.1233
     16 C          -2.3194   -0.8299   -0.0001 C.ar    1  LIG1        0.0359
     17 C          -3.4501   -0.0114    0.0210 C.ar    1  LIG1       -0.0062
     18 C          -4.7120   -0.6083    0.0204 C.ar    1  LIG1        0.1465
     19 C          -4.7903   -2.0130   -0.0016 C.ar    1  LIG1        0.1499
     20 N          -3.7099   -2.8177   -0.0220 N.ar    1  LIG1       -0.2309
     21 H          -3.3484    1.0830    0.0367 H       1  LIG1        0.0662
     22 C          -1.4783   -3.0283   -0.0410 C.1     1  LIG1       -0.0491
     23 C          -0.5341   -3.7706   -0.0595 C.1     1  LIG1       -0.1124
     24 H           0.3070   -4.4318   -0.0759 H       1  LIG1        0.1232
     25 O          -5.7953    0.1100    0.0393 O.3     1  LIG1       -0.5045
     26 H          -6.5625   -0.4671    0.0440 H       1  LIG1        0.2922
     27 C          -5.9423   -2.6153   -0.0030 C.ar    1  LIG1        0.1767
     28 C          -7.2620   -2.2136   -0.0041 C.ar    1  LIG1        0.1204
     29 C          -8.0629   -3.4201   -0.0055 C.ar    1  LIG1        0.0925
     30 C          -7.1790   -4.4795   -0.0053 C.ar    1  LIG1        0.1961
     31 O          -5.8655   -4.0088   -0.0039 O.2     1  LIG1       -0.4467
     32 N          -8.1312    0.0734   -0.0036 N.1     1  LIG1       -0.1907
     33 C          -7.7239   -0.9984   -0.0039 C.1     1  LIG1        0.1049
     34 N          -9.3620   -3.4671   -0.0068 N.pl3   1  LIG1       -0.3539
     35 H          -9.7242   -2.6632   -0.4785 H       1  LIG1        0.1425
     36 H          -9.6652   -4.2950   -0.4786 H       1  LIG1        0.1425
     37 C          -7.2860   -5.7751   -0.0061 C.ar    1  LIG1        0.2139
     38 C          -8.3310   -6.6755    0.0082 C.ar    1  LIG1        0.1815
     39 C          -7.7398   -7.9973   -0.0033 C.ar    1  LIG1        0.1045
     40 C          -6.3720   -7.8168   -0.0238 C.ar    1  LIG1        0.1118
     41 O          -6.0675   -6.4552   -0.0260 O.2     1  LIG1       -0.4547
     42 H          -5.3346   -8.6000   -0.0410 H       1  LIG1        0.1043
     43 O          -9.6047   -6.4160    0.0281 O.3     1  LIG1       -0.5023
     44 H         -10.0993   -7.2387    0.0330 H       1  LIG1        0.2923
     45 C          -8.3946   -9.1203    0.0046 C.1     1  LIG1       -0.0628
     46 C          -8.9997  -10.1579    0.0119 C.1     1  LIG1       -0.1137
     47 H          -9.5388  -11.0822    0.0184 H       1  LIG1        0.1232
@<TRIPOS>BOND
     1    13    11    1
     2    36    34    1
     3    35    34    1
     4    10     8    1
     5     9     8    1
     6    24    23    1
     7    23    22    3
     8    42    40    1
     9    22    15    1
    10    41    40   ar
    11    41    37   ar
    12    40    39   ar
    13    20    15   ar
    14    20    19   ar
    15    15    16   ar
    16    34    29    1
    17    37    30    1
    18    37    38   ar
    19    29    30   ar
    20    29    28   ar
    21    30    31   ar
    22    28    33    1
    23    28    27   ar
    24    31    27   ar
    25    33    32    3
    26    39    45    1
    27    39    38   ar
    28    27    19    1
    29    19    18   ar
    30     2     8    1
    31     2     1   ar
    32     2     3   ar
    33     6     5    1
    34     4    16    1
    35     4     5   ar
    36     4     3   ar
    37    16    17   ar
    38     5     1   ar
    39     1     7    1
    40     3    11    1
    41    11    14    1
    42    11    12    1
    43    45    46    3
    44    38    43    1
    45    46    47    1
    46    18    17   ar
    47    18    25    1
    48    17    21    1
    49    43    44    1
    50    25    26    1
