@<TRIPOS>MOLECULE
mol_data/noopt/geoms/mol2/13hl13hl-13hl-13hl-.out
 58 57 0 0 0
SMALL
GASTEIGER

@<TRIPOS>ATOM
      1 C           1.1215   -0.3259    0.0002 C.ar    1  LIG1        0.0267
      2 C           0.7176    0.9721   -0.0005 C.ar    1  LIG1        0.0851
      3 C          -0.7144    0.9744    0.0003 C.ar    1  LIG1        0.1673
      4 C          -1.1226   -0.3223   -0.0003 C.ar    1  LIG1        0.1089
      5 N          -0.0018   -1.1217    0.0001 N.ar    1  LIG1       -0.3549
      6 H          -0.0034   -2.1157   -0.0003 H       1  LIG1        0.1655
      7 H           2.3167   -0.8373    0.0007 H       1  LIG1        0.0827
      8 N           1.4918    2.0164   -0.0003 N.pl3   1  LIG1       -0.3540
      9 H           2.3463    1.7980   -0.4717 H       1  LIG1        0.1425
     10 H           1.0345    2.7705   -0.4717 H       1  LIG1        0.1425
     11 O          -1.4853    2.0212    0.0010 O.3     1  LIG1       -0.4911
     12 C          -0.6829    3.2049    0.0012 C.3     1  LIG1        0.0790
     13 H          -1.3178    4.0662    0.0016 H       1  LIG1        0.0660
     14 H          -0.0650    3.2168    0.8747 H       1  LIG1        0.0660
     15 H          -0.0654    3.2174   -0.8726 H       1  LIG1        0.0660
     16 C          -2.3194   -0.8299   -0.0001 C.ar    1  LIG1        0.0918
     17 C          -2.7274   -2.1266   -0.0005 C.ar    1  LIG1        0.0998
     18 C          -4.1594   -2.1244    0.0011 C.ar    1  LIG1        0.2266
     19 C          -4.5635   -0.8264    0.0006 C.ar    1  LIG1        0.1133
     20 N          -3.4402   -0.0305    0.0003 N.ar    1  LIG1       -0.3472
     21 H          -3.4386    0.9635   -0.0001 H       1  LIG1        0.1662
     22 N          -1.9565   -3.1734   -0.0006 N.pl3   1  LIG1       -0.3533
     23 H          -2.4164   -3.9259   -0.4720 H       1  LIG1        0.1425
     24 H          -1.1015   -2.9576   -0.4721 H       1  LIG1        0.1425
     25 O          -4.9337   -3.1687    0.0023 O.3     1  LIG1       -0.2836
     26 C          -6.3008   -2.7494    0.0027 C.3     2  LIG2       -0.0681
     27 H          -6.9376   -3.6092    0.0035 H       1  LIG1        0.0227
     28 H          -6.4935   -2.1620    0.8761 H       1  LIG1        0.0227
     29 H          -6.4943   -2.1631   -0.8712 H       1  LIG1        0.0227
     30 C          -5.7587   -0.3150    0.0014 C.ar    1  LIG1        0.0790
     31 C          -6.9765   -0.9191    0.0015 C.ar    1  LIG1        0.0621
     32 C          -7.9670    0.1151    0.0037 C.ar    1  LIG1        0.2140
     33 C          -7.3109    1.3057    0.0031 C.ar    1  LIG1        0.1120
     34 N          -5.9587    1.0470    0.0022 N.ar    1  LIG1       -0.3482
     35 H          -5.2408    1.7345    0.0016 H       1  LIG1        0.1661
     36 N          -7.1973   -2.2002    0.0012 N.3     3  LIG3       -0.2731
     37 H          -8.0585   -2.3899   -0.4703 H       2  LIG2        0.1366
     38 H          -6.4493   -2.6673   -0.4703 H       2  LIG2        0.1366
     39 O          -9.2565   -0.0501    0.0054 O.3     1  LIG1       -0.2849
     40 C          -9.9012    1.2263    0.0060 C.3     4  LIG4       -0.0681
     41 H         -10.9624    1.0899    0.0073 H       3  LIG3        0.0227
     42 H          -9.6107    1.7723    0.8793 H       3  LIG3        0.0227
     43 H          -9.6128    1.7720   -0.8680 H       3  LIG3        0.0227
     44 C          -7.7701    2.5219    0.0044 C.ar    1  LIG1        0.0783
     45 C          -9.0494    2.9816    0.0047 C.ar    1  LIG1        0.0562
     46 C          -8.9898    4.4124    0.0074 C.ar    1  LIG1        0.1458
     47 C          -7.6767    4.7641    0.0068 C.ar    1  LIG1        0.0450
     48 N          -6.9265    3.6098    0.0054 N.ar    1  LIG1       -0.3559
     49 H          -5.9333    3.5684    0.0046 H       1  LIG1        0.1655
     50 H          -7.1178    5.9378    0.0083 H       1  LIG1        0.0844
     51 N         -10.1263    2.2533    0.0043 N.3     5  LIG5       -0.2731
     52 H         -10.8597    2.7429   -0.4672 H       4  LIG4        0.1366
     53 H          -9.9448    1.3903   -0.4672 H       4  LIG4        0.1366
     54 O         -10.0023    5.2278    0.0095 O.3     1  LIG1       -0.4930
     55 C          -9.5285    6.5770    0.0102 C.3     1  LIG1        0.0789
     56 H         -10.3621    7.2478    0.0117 H       1  LIG1        0.0660
     57 H          -8.9334    6.7456    0.8833 H       1  LIG1        0.0660
     58 H          -8.9354    6.7472   -0.8640 H       1  LIG1        0.0660
@<TRIPOS>BOND
     1    15    12    1
     2    29    26    1
     3    43    40    1
     4    58    55    1
     5    24    22    1
     6    23    22    1
     7    10     8    1
     8     9     8    1
     9    38    36    1
    10    37    36    1
    11    53    51    1
    12    52    51    1
    13    22    17    1
    14     2     8    1
    15     2     1   ar
    16     2     3   ar
    17    17    16   ar
    18    17    18   ar
    19     6     5    1
    20     4    16    1
    21     4     5   ar
    22     4     3   ar
    23    21    20    1
    24    16    20   ar
    25     5     1   ar
    26     1     7    1
    27     3    11    1
    28    20    19   ar
    29    19    18   ar
    30    19    30    1
    31    11    12    1
    32    18    25    1
    33    12    13    1
    34    12    14    1
    35    30    31   ar
    36    30    34   ar
    37    31    32   ar
    38    35    34    1
    39    34    33   ar
    40    26    27    1
    41    26    28    1
    42    33    32   ar
    43    33    44    1
    44    32    39    1
    45    44    45   ar
    46    44    48   ar
    47    49    48    1
    48    45    46   ar
    49    48    47   ar
    50    40    41    1
    51    40    42    1
    52    47    46   ar
    53    47    50    1
    54    46    54    1
    55    54    55    1
    56    55    56    1
    57    55    57    1
