@<TRIPOS>MOLECULE
mol_data/noopt/geoms/mol2/13hl13hl13hl-13hl.out
 58 60 0 0 0
SMALL
GASTEIGER

@<TRIPOS>ATOM
      1 C           1.1215   -0.3259    0.0002 C.ar    1  LIG1        0.0267
      2 C           0.7176    0.9721   -0.0005 C.ar    1  LIG1        0.0851
      3 C          -0.7144    0.9744    0.0003 C.ar    1  LIG1        0.1673
      4 C          -1.1226   -0.3223   -0.0003 C.ar    1  LIG1        0.1089
      5 N          -0.0018   -1.1217    0.0001 N.ar    1  LIG1       -0.3549
      6 H          -0.0034   -2.1157   -0.0003 H       1  LIG1        0.1655
      7 H           2.3167   -0.8373    0.0007 H       1  LIG1        0.0827
      8 N           1.4918    2.0164   -0.0003 N.pl3   1  LIG1       -0.3540
      9 H           2.3463    1.7980   -0.4717 H       1  LIG1        0.1425
     10 H           1.0345    2.7705   -0.4717 H       1  LIG1        0.1425
     11 O          -1.4853    2.0212    0.0010 O.3     1  LIG1       -0.4911
     12 C          -0.6829    3.2049    0.0012 C.3     1  LIG1        0.0790
     13 H          -1.3178    4.0662    0.0016 H       1  LIG1        0.0660
     14 H          -0.0650    3.2168    0.8747 H       1  LIG1        0.0660
     15 H          -0.0654    3.2174   -0.8726 H       1  LIG1        0.0660
     16 C          -2.3194   -0.8299   -0.0001 C.ar    1  LIG1        0.0916
     17 C          -3.5353   -0.2219   -0.0003 C.ar    1  LIG1        0.0947
     18 C          -4.5290   -1.2530    0.0012 C.ar    1  LIG1        0.1679
     19 C          -3.8767   -2.4457    0.0005 C.ar    1  LIG1        0.1094
     20 N          -2.5238   -2.1913    0.0002 N.ar    1  LIG1       -0.3473
     21 H          -1.8081   -2.8811   -0.0004 H       1  LIG1        0.1662
     22 N          -3.7520    1.0599   -0.0003 N.pl3   1  LIG1       -0.3534
     23 H          -3.0025    1.5247   -0.4717 H       1  LIG1        0.1425
     24 H          -4.6126    1.2525   -0.4717 H       1  LIG1        0.1425
     25 O          -5.8180   -1.0837    0.0025 O.3     1  LIG1       -0.4911
     26 C          -6.1157    0.3150    0.0029 C.3     1  LIG1        0.0790
     27 H          -7.1766    0.4539    0.0038 H       1  LIG1        0.0660
     28 H          -5.6958    0.7688    0.8763 H       1  LIG1        0.0660
     29 H          -5.6973    0.7690   -0.8710 H       1  LIG1        0.0660
     30 C          -4.3398   -3.6604    0.0012 C.ar    1  LIG1        0.0918
     31 C          -3.6874   -4.8530    0.0012 C.ar    1  LIG1        0.0998
     32 C          -4.6811   -5.8841    0.0032 C.ar    1  LIG1        0.2267
     33 C          -5.8970   -5.2763    0.0027 C.ar    1  LIG1        0.1165
     34 N          -5.6927   -3.9149    0.0019 N.ar    1  LIG1       -0.3471
     35 H          -6.4084   -3.2251    0.0013 H       1  LIG1        0.1662
     36 N          -2.3984   -5.0223    0.0009 N.pl3   1  LIG1       -0.3533
     37 H          -2.1744   -5.8753   -0.4706 H       1  LIG1        0.1425
     38 H          -1.9617   -4.2562   -0.4706 H       1  LIG1        0.1425
     39 O          -4.4643   -7.1660    0.0049 O.3     1  LIG1       -0.2836
     40 C          -5.7139   -7.8613    0.0054 C.3     2  LIG2       -0.0776
     41 H          -5.5350   -8.9163    0.0066 H       1  LIG1        0.0194
     42 H          -6.2710   -7.5931    0.8787 H       1  LIG1        0.0194
     43 H          -6.2707   -7.5950   -0.8686 H       1  LIG1        0.0194
     44 C          -7.0939   -5.7839    0.0038 C.ar    1  LIG1        0.1152
     45 C          -8.3097   -5.1759    0.0043 C.ar    1  LIG1        0.0962
     46 C          -9.3034   -6.2070    0.0067 C.ar    1  LIG1        0.1607
     47 C          -8.6511   -7.3997    0.0060 C.ar    1  LIG1        0.0719
     48 N          -7.2982   -7.1453    0.0047 N.ar    1  LIG1       -0.2477
     49 H          -6.5825   -7.8351    0.0038 H       1  LIG1        0.0194
     50 H          -9.1142   -8.6144    0.0073 H       1  LIG1        0.0868
     51 N          -8.5264   -3.8941    0.0041 N.pl3   1  LIG1       -0.3534
     52 H          -7.7769   -3.4294   -0.4674 H       1  LIG1        0.1425
     53 H          -9.3870   -3.7016   -0.4674 H       1  LIG1        0.1425
     54 O         -10.5924   -6.0377    0.0089 O.3     1  LIG1       -0.4917
     55 C         -10.8901   -4.6390    0.0096 C.3     1  LIG1        0.0789
     56 H         -11.9510   -4.5001    0.0111 H       1  LIG1        0.0660
     57 H         -10.4697   -4.1853    0.8827 H       1  LIG1        0.0660
     58 H         -10.4723   -4.1850   -0.8646 H       1  LIG1        0.0660
@<TRIPOS>BOND
     1    15    12    1
     2    29    26    1
     3    43    40    1
     4    58    55    1
     5    24    22    1
     6    10     8    1
     7    23    22    1
     8     9     8    1
     9    38    36    1
    10    37    36    1
    11    53    51    1
    12    52    51    1
    13     2     8    1
    14     2     1   ar
    15     2     3   ar
    16    21    20    1
    17    17    22    1
    18    17    16   ar
    19    17    18   ar
    20     6     5    1
    21     4    16    1
    22     4     5   ar
    23     4     3   ar
    24    16    20   ar
    25     5     1   ar
    26    20    19   ar
    27     1     7    1
    28     3    11    1
    29    19    18   ar
    30    19    30    1
    31    36    31    1
    32    11    12    1
    33    31    30   ar
    34    31    32   ar
    35    18    25    1
    36    12    13    1
    37    12    14    1
    38    30    34   ar
    39    35    34    1
    40    34    33   ar
    41    25    26    1
    42    33    32   ar
    43    33    44    1
    44    26    27    1
    45    26    28    1
    46    32    39    1
    47    49    40    1
    48    44    45   ar
    49    44    48   ar
    50    51    45    1
    51    45    46   ar
    52    48    47   ar
    53    40    41    1
    54    40    42    1
    55    47    46   ar
    56    47    50    1
    57    46    54    1
    58    54    55    1
    59    55    56    1
    60    55    57    1
