@<TRIPOS>MOLECULE
mol_data/noopt/geoms/mol2/13hl13hl13hl.out
 44 46 0 0 0
SMALL
GASTEIGER

@<TRIPOS>ATOM
      1 C           1.1215   -0.3259    0.0002 C.ar    1  LIG1        0.0267
      2 C           0.7176    0.9721   -0.0005 C.ar    1  LIG1        0.0851
      3 C          -0.7144    0.9744    0.0003 C.ar    1  LIG1        0.1673
      4 C          -1.1226   -0.3223   -0.0003 C.ar    1  LIG1        0.1089
      5 N          -0.0018   -1.1217    0.0001 N.ar    1  LIG1       -0.3549
      6 H          -0.0034   -2.1157   -0.0003 H       1  LIG1        0.1655
      7 H           2.3167   -0.8373    0.0007 H       1  LIG1        0.0827
      8 N           1.4918    2.0164   -0.0003 N.pl3   1  LIG1       -0.3540
      9 H           2.3463    1.7980   -0.4717 H       1  LIG1        0.1425
     10 H           1.0345    2.7705   -0.4717 H       1  LIG1        0.1425
     11 O          -1.4853    2.0212    0.0010 O.3     1  LIG1       -0.4911
     12 C          -0.6829    3.2049    0.0012 C.3     1  LIG1        0.0790
     13 H          -1.3178    4.0662    0.0016 H       1  LIG1        0.0660
     14 H          -0.0650    3.2168    0.8747 H       1  LIG1        0.0660
     15 H          -0.0654    3.2174   -0.8726 H       1  LIG1        0.0660
     16 C          -2.3194   -0.8299   -0.0001 C.ar    1  LIG1        0.0916
     17 C          -3.5353   -0.2219   -0.0003 C.ar    1  LIG1        0.0947
     18 C          -4.5290   -1.2530    0.0012 C.ar    1  LIG1        0.1679
     19 C          -3.8767   -2.4457    0.0005 C.ar    1  LIG1        0.1094
     20 N          -2.5238   -2.1913    0.0002 N.ar    1  LIG1       -0.3473
     21 H          -1.8081   -2.8811   -0.0004 H       1  LIG1        0.1662
     22 N          -3.7520    1.0599   -0.0003 N.pl3   1  LIG1       -0.3534
     23 H          -3.0025    1.5247   -0.4717 H       1  LIG1        0.1425
     24 H          -4.6126    1.2525   -0.4717 H       1  LIG1        0.1425
     25 O          -5.8180   -1.0837    0.0025 O.3     1  LIG1       -0.4911
     26 C          -6.1157    0.3150    0.0029 C.3     1  LIG1        0.0790
     27 H          -7.1766    0.4539    0.0038 H       1  LIG1        0.0660
     28 H          -5.6958    0.7688    0.8763 H       1  LIG1        0.0660
     29 H          -5.6973    0.7690   -0.8710 H       1  LIG1        0.0660
     30 C          -4.3398   -3.6604    0.0012 C.ar    1  LIG1        0.0912
     31 C          -5.6206   -4.1160    0.0013 C.ar    1  LIG1        0.0940
     32 C          -5.5655   -5.5470    0.0033 C.ar    1  LIG1        0.1585
     33 C          -4.2535   -5.9029    0.0026 C.ar    1  LIG1        0.0463
     34 N          -3.4996   -4.7510    0.0018 N.ar    1  LIG1       -0.3549
     35 H          -2.5064   -4.7127    0.0010 H       1  LIG1        0.1655
     36 H          -3.6983   -7.0784    0.0036 H       1  LIG1        0.0845
     37 N          -6.6951   -3.3843    0.0012 N.pl3   1  LIG1       -0.3535
     38 H          -6.5110   -2.5218   -0.4702 H       1  LIG1        0.1425
     39 H          -7.4301   -3.8715   -0.4702 H       1  LIG1        0.1425
     40 O          -6.5806   -6.3592    0.0050 O.3     1  LIG1       -0.4918
     41 C          -7.7954   -5.6049    0.0056 C.3     1  LIG1        0.0789
     42 H          -8.6306   -6.2737    0.0068 H       1  LIG1        0.0660
     43 H          -7.8316   -4.9876    0.8789 H       1  LIG1        0.0660
     44 H          -7.8332   -4.9888   -0.8684 H       1  LIG1        0.0660
@<TRIPOS>BOND
     1    15    12    1
     2    29    26    1
     3    44    41    1
     4    24    22    1
     5    10     8    1
     6    23    22    1
     7     9     8    1
     8    39    37    1
     9    38    37    1
    10     2     8    1
    11     2     1   ar
    12     2     3   ar
    13    21    20    1
    14    17    22    1
    15    17    16   ar
    16    17    18   ar
    17     6     5    1
    18     4    16    1
    19     4     5   ar
    20     4     3   ar
    21    16    20   ar
    22     5     1   ar
    23    20    19   ar
    24     1     7    1
    25     3    11    1
    26    19    18   ar
    27    19    30    1
    28    35    34    1
    29    11    12    1
    30    18    25    1
    31    12    13    1
    32    12    14    1
    33    30    31   ar
    34    30    34   ar
    35    37    31    1
    36    31    32   ar
    37    34    33   ar
    38    25    26    1
    39    33    32   ar
    40    33    36    1
    41    26    27    1
    42    26    28    1
    43    32    40    1
    44    40    41    1
    45    41    42    1
    46    41    43    1
