@<TRIPOS>MOLECULE
mol_data/noopt/geoms/mol2/13hl13hl-.out
 30 31 0 0 0
SMALL
GASTEIGER

@<TRIPOS>ATOM
      1 C           1.1215   -0.3259    0.0002 C.ar    1  LIG1        0.0267
      2 C           0.7176    0.9721   -0.0005 C.ar    1  LIG1        0.0851
      3 C          -0.7144    0.9744    0.0003 C.ar    1  LIG1        0.1673
      4 C          -1.1226   -0.3223   -0.0003 C.ar    1  LIG1        0.1089
      5 N          -0.0018   -1.1217    0.0001 N.ar    1  LIG1       -0.3549
      6 H          -0.0034   -2.1157   -0.0003 H       1  LIG1        0.1655
      7 H           2.3167   -0.8373    0.0007 H       1  LIG1        0.0827
      8 N           1.4918    2.0164   -0.0003 N.pl3   1  LIG1       -0.3540
      9 H           2.3463    1.7980   -0.4717 H       1  LIG1        0.1425
     10 H           1.0345    2.7705   -0.4717 H       1  LIG1        0.1425
     11 O          -1.4853    2.0212    0.0010 O.3     1  LIG1       -0.4911
     12 C          -0.6829    3.2049    0.0012 C.3     1  LIG1        0.0790
     13 H          -1.3178    4.0662    0.0016 H       1  LIG1        0.0660
     14 H          -0.0650    3.2168    0.8747 H       1  LIG1        0.0660
     15 H          -0.0654    3.2174   -0.8726 H       1  LIG1        0.0660
     16 C          -2.3194   -0.8299   -0.0001 C.ar    1  LIG1        0.0912
     17 C          -2.7274   -2.1266   -0.0005 C.ar    1  LIG1        0.0940
     18 C          -4.1594   -2.1244    0.0011 C.ar    1  LIG1        0.1585
     19 C          -4.5635   -0.8264    0.0006 C.ar    1  LIG1        0.0463
     20 N          -3.4402   -0.0305    0.0003 N.ar    1  LIG1       -0.3549
     21 H          -3.4386    0.9635   -0.0001 H       1  LIG1        0.1655
     22 H          -5.7587   -0.3150    0.0014 H       1  LIG1        0.0845
     23 N          -1.9565   -3.1734   -0.0006 N.pl3   1  LIG1       -0.3535
     24 H          -2.4164   -3.9259   -0.4720 H       1  LIG1        0.1425
     25 H          -1.1015   -2.9576   -0.4721 H       1  LIG1        0.1425
     26 O          -4.9337   -3.1687    0.0023 O.3     1  LIG1       -0.4918
     27 C          -6.3008   -2.7494    0.0027 C.3     1  LIG1        0.0789
     28 H          -6.9376   -3.6092    0.0035 H       1  LIG1        0.0660
     29 H          -6.4935   -2.1620    0.8761 H       1  LIG1        0.0660
     30 H          -6.4943   -2.1631   -0.8712 H       1  LIG1        0.0660
@<TRIPOS>BOND
     1    15    12    1
     2    30    27    1
     3    25    23    1
     4    24    23    1
     5    10     8    1
     6     9     8    1
     7    23    17    1
     8     2     8    1
     9     2     1   ar
    10     2     3   ar
    11    17    16   ar
    12    17    18   ar
    13     4    16    1
    14     4     5   ar
    15     4     3   ar
    16     6     5    1
    17    21    20    1
    18    16    20   ar
    19     5     1   ar
    20     1     7    1
    21     3    11    1
    22    20    19   ar
    23    19    18   ar
    24    19    22    1
    25    11    12    1
    26    18    26    1
    27    12    13    1
    28    12    14    1
    29    26    27    1
    30    27    28    1
    31    27    29    1
