@<TRIPOS>MOLECULE
mol_data/noopt/geoms/mol2/13hl6ii4ee12he-.out
 56 59 0 0 0
SMALL
GASTEIGER

@<TRIPOS>ATOM
      1 C           1.1215   -0.3259    0.0002 C.ar    1  LIG1        0.0267
      2 C           0.7176    0.9721   -0.0005 C.ar    1  LIG1        0.0850
      3 C          -0.7144    0.9744    0.0003 C.ar    1  LIG1        0.1658
      4 C          -1.1226   -0.3223   -0.0003 C.ar    1  LIG1        0.0923
      5 N          -0.0018   -1.1217    0.0001 N.ar    1  LIG1       -0.3560
      6 H          -0.0034   -2.1157   -0.0003 H       1  LIG1        0.1655
      7 H           2.3167   -0.8373    0.0007 H       1  LIG1        0.0827
      8 N           1.4918    2.0164   -0.0003 N.pl3   1  LIG1       -0.3540
      9 H           2.3463    1.7980   -0.4717 H       1  LIG1        0.1425
     10 H           1.0345    2.7705   -0.4717 H       1  LIG1        0.1425
     11 O          -1.4853    2.0212    0.0010 O.3     1  LIG1       -0.4911
     12 C          -0.6829    3.2049    0.0012 C.3     1  LIG1        0.0790
     13 H          -1.3178    4.0662    0.0016 H       1  LIG1        0.0660
     14 H          -0.0650    3.2168    0.8747 H       1  LIG1        0.0660
     15 H          -0.0654    3.2174   -0.8726 H       1  LIG1        0.0660
     16 C          -2.5001   -2.2252    0.0002 C.ar    1  LIG1        0.0481
     17 C          -2.3194   -0.8299   -0.0001 C.ar    1  LIG1        0.0232
     18 C          -3.4502   -0.0112    0.0002 C.ar    1  LIG1       -0.0456
     19 C          -4.7120   -0.6082    0.0005 C.ar    1  LIG1       -0.0204
     20 C          -4.7903   -2.0130    0.0006 C.ar    1  LIG1        0.0748
     21 N          -3.7098   -2.8179    0.0005 N.ar    1  LIG1       -0.2509
     22 H          -3.3485    1.0833   -0.0010 H       1  LIG1        0.0628
     23 C          -1.4779   -3.0288    0.0000 C.3     1  LIG1       -0.0217
     24 H          -0.6575   -2.5625    0.5044 H       1  LIG1        0.0293
     25 H          -1.1975   -3.2492   -1.0089 H       1  LIG1        0.0293
     26 H          -1.7375   -3.9361    0.5044 H       1  LIG1        0.0293
     27 C          -5.7957    0.1105    0.0006 C.3     1  LIG1       -0.0216
     28 H          -6.5758   -0.4205    0.5050 H       1  LIG1        0.0358
     29 H          -6.0931    0.3076   -1.0082 H       1  LIG1        0.0317
     30 H          -5.6100    1.0357    0.5050 H       1  LIG1        0.0317
     31 C          -7.1312   -1.8575    0.0019 C.ar    1  LIG1       -0.0335
     32 C          -8.3534   -2.5571    0.0039 C.ar    1  LIG1       -0.0457
     33 C          -5.9423   -2.6153    0.0010 C.ar    1  LIG1        0.0053
     34 C          -8.3926   -3.9496    0.0042 C.ar    1  LIG1        0.0348
     35 H          -9.2828   -1.9919    0.0048 H       1  LIG1        0.0628
     36 C          -5.9808   -4.0055    0.0013 C.ar    1  LIG1       -0.0362
     37 C          -7.2049   -4.6822    0.0028 C.ar    1  LIG1        0.0360
     38 H          -5.0502   -4.5673    0.0006 H       1  LIG1        0.0637
     39 C          -7.1587   -0.5578    0.0014 C.3     1  LIG1       -0.0047
     40 C          -7.1842    0.6432    0.0010 C.3     1  LIG1       -0.0263
     41 H          -7.2068    1.7129    0.0006 H       1  LIG1        0.0313
     42 C          -7.2347   -5.9818    0.0033 C.1     1  LIG1       -0.0689
     43 C          -7.2623   -7.1827    0.0037 C.1     1  LIG1       -0.1139
     44 H          -7.2868   -8.2525    0.0041 H       1  LIG1        0.1232
     45 C          -9.5387   -4.5631    0.0059 C.ar    1  LIG1        0.1577
     46 C         -10.8622   -4.1742    0.0072 C.ar    1  LIG1        0.0866
     47 C         -11.6513   -5.3884    0.0089 C.ar    1  LIG1        0.0836
     48 C         -10.7572   -6.4392    0.0084 C.ar    1  LIG1        0.1098
     49 O          -9.4483   -5.9557    0.0065 O.2     1  LIG1       -0.4597
     50 H         -10.8516   -7.7357    0.0093 H       1  LIG1        0.1043
     51 N         -11.3359   -2.9635    0.0071 N.pl3   1  LIG1       -0.3541
     52 H         -10.6969   -2.3557   -0.4643 H       1  LIG1        0.1425
     53 H         -12.2176   -2.9506   -0.4644 H       1  LIG1        0.1425
     54 C         -12.9500   -5.4480    0.0104 C.1     1  LIG1       -0.0646
     55 C         -14.1499   -5.5031    0.0118 C.1     1  LIG1       -0.1138
     56 H         -15.2188   -5.5522    0.0131 H       1  LIG1        0.1232
@<TRIPOS>BOND
     1    25    23    1
     2    29    27    1
     3    15    12    1
     4    10     8    1
     5     9     8    1
     6    53    51    1
     7    52    51    1
     8    22    18    1
     9     2     8    1
    10     2     1   ar
    11     2     3   ar
    12     4    17    1
    13     4     5   ar
    14     4     3   ar
    15     6     5    1
    16    17    16   ar
    17    17    18   ar
    18    23    16    1
    19    23    26    1
    20    23    24    1
    21     5     1   ar
    22    16    21   ar
    23    18    19   ar
    24     1     7    1
    25     3    11    1
    26    21    20   ar
    27    19    20   ar
    28    19    27    1
    29    41    40    1
    30    20    33    1
    31    27    30    1
    32    38    36    1
    33    33    36   ar
    34    33    31   ar
    35    40    39    1
    36    11    12    1
    37    12    13    1
    38    12    14    1
    39    36    37   ar
    40    39    31    1
    41    39    28    1
    42    31    32   ar
    43    37    42    1
    44    37    34   ar
    45    42    43    3
    46    43    44    1
    47    32    34   ar
    48    32    35    1
    49    34    45    1
    50    45    49   ar
    51    45    46   ar
    52    49    48   ar
    53    51    46    1
    54    46    47   ar
    55    48    47   ar
    56    48    50    1
    57    47    54    1
    58    54    55    3
    59    55    56    1
