@<TRIPOS>MOLECULE
mol_data/noopt/geoms/mol2/13hl4ee-12el-4hf12al6ah-13aa12le.out
 99 106 0 0 0
SMALL
GASTEIGER

@<TRIPOS>ATOM
      1 C           1.1215   -0.3259    0.0002 C.ar    1  LIG1        0.0267
      2 C           0.7176    0.9721   -0.0005 C.ar    1  LIG1        0.0850
      3 C          -0.7144    0.9744    0.0003 C.ar    1  LIG1        0.1658
      4 C          -1.1226   -0.3223   -0.0003 C.ar    1  LIG1        0.0918
      5 N          -0.0018   -1.1217    0.0001 N.ar    1  LIG1       -0.3561
      6 H          -0.0034   -2.1157   -0.0003 H       1  LIG1        0.1655
      7 H           2.3167   -0.8373    0.0007 H       1  LIG1        0.0827
      8 N           1.4918    2.0164   -0.0003 N.pl3   1  LIG1       -0.3540
      9 H           2.3463    1.7980   -0.4717 H       1  LIG1        0.1425
     10 H           1.0345    2.7705   -0.4717 H       1  LIG1        0.1425
     11 O          -1.4853    2.0212    0.0010 O.3     1  LIG1       -0.4911
     12 C          -0.6829    3.2049    0.0012 C.3     1  LIG1        0.0790
     13 H          -1.3178    4.0662    0.0016 H       1  LIG1        0.0660
     14 H          -0.0650    3.2168    0.8747 H       1  LIG1        0.0660
     15 H          -0.0654    3.2174   -0.8726 H       1  LIG1        0.0660
     16 C          -3.4433    0.0211    0.0221 C.ar    1  LIG1        0.0346
     17 C          -4.7179   -0.5778    0.0229 C.ar    1  LIG1       -0.0338
     18 C          -2.3194   -0.8299   -0.0001 C.ar    1  LIG1        0.0185
     19 C          -4.8691   -1.9625    0.0019 C.ar    1  LIG1        0.0352
     20 H          -5.5986    0.0603    0.0400 H       1  LIG1        0.0637
     21 C          -2.4698   -2.2123   -0.0211 C.ar    1  LIG1       -0.0352
     22 C          -3.7445   -2.7882   -0.0203 C.ar    1  LIG1        0.0361
     23 H          -1.5876   -2.8471   -0.0379 H       1  LIG1        0.0637
     24 C          -3.3660    1.3186    0.0420 C.1     1  LIG1       -0.0690
     25 C          -3.2945    2.5175    0.0604 C.1     1  LIG1       -0.1139
     26 H          -3.2309    3.5855    0.0768 H       1  LIG1        0.1232
     27 C          -3.8789   -4.0811   -0.0398 C.1     1  LIG1       -0.0689
     28 C          -4.0032   -5.2757   -0.0578 C.1     1  LIG1       -0.1139
     29 H          -4.1138   -6.3398   -0.0738 H       1  LIG1        0.1232
     30 C          -6.0610   -2.4817    0.0032 C.ar    1  LIG1        0.1559
     31 C          -7.3489   -1.9875    0.0042 C.ar    1  LIG1        0.1127
     32 C          -8.2332   -3.1342    0.0054 C.ar    1  LIG1        0.1817
     33 C          -7.4266   -4.2536    0.0050 C.ar    1  LIG1        0.1802
     34 O          -6.0830   -3.8771    0.0036 O.2     1  LIG1       -0.4497
     35 C          -7.7235   -0.7426    0.0041 C.1     1  LIG1       -0.0622
     36 C          -8.0695    0.4077    0.0041 C.1     1  LIG1       -0.1137
     37 H          -8.3778    1.4323    0.0040 H       1  LIG1        0.1232
     38 O          -9.5325   -3.0890    0.0066 O.3     1  LIG1       -0.4901
     39 C          -9.9626   -1.7253    0.0069 C.3     1  LIG1        0.0790
     40 H         -11.0320   -1.6886    0.0077 H       1  LIG1        0.0660
     41 H          -9.5882   -1.2334    0.8804 H       1  LIG1        0.0660
     42 H          -9.5895   -1.2333   -0.8669 H       1  LIG1        0.0660
     43 C          -8.9405   -6.0458    0.0068 C.ar    1  LIG1        0.0364
     44 C          -9.1024   -7.4447    0.0091 C.ar    1  LIG1       -0.0262
     45 C          -7.6251   -5.5383    0.0057 C.ar    1  LIG1        0.0451
     46 C          -8.0046   -8.3024    0.0096 C.ar    1  LIG1        0.0605
     47 H         -10.1087   -7.8576    0.0102 H       1  LIG1        0.0644
     48 C          -6.5288   -6.3940    0.0062 C.ar    1  LIG1       -0.0069
     49 C          -6.7103   -7.7809    0.0080 C.ar    1  LIG1        0.1283
     50 H          -5.5244   -5.9782    0.0054 H       1  LIG1        0.0662
     51 N         -10.0031   -5.2969    0.0062 N.pl3   1  LIG1       -0.3574
     52 H          -9.8050   -4.4376   -0.4654 H       1  LIG1        0.1423
     53 H         -10.7457   -5.7724   -0.4654 H       1  LIG1        0.1423
     54 O          -5.6817   -8.5759    0.0086 O.3     1  LIG1       -0.5060
     55 H          -4.8747   -8.0559    0.0088 H       1  LIG1        0.2922
     56 C          -8.1907   -9.5890    0.0116 C.ar    1  LIG1        0.1429
     57 C          -9.2889  -10.4237    0.0131 C.ar    1  LIG1        0.0268
     58 C          -8.7796  -11.7793    0.0150 C.ar    1  LIG1        0.1663
     59 C          -7.4032  -11.6828    0.0145 C.ar    1  LIG1        0.1786
     60 O          -7.0159  -10.3424    0.0122 O.2     1  LIG1       -0.4509
     61 H         -10.5445  -10.0868    0.0129 H       1  LIG1        0.0692
     62 O          -9.5020  -12.8601    0.0168 O.3     1  LIG1       -0.4913
     63 C         -10.8879  -12.5078    0.0174 C.3     1  LIG1        0.0790
     64 H         -11.4822  -13.3977    0.0187 H       1  LIG1        0.0660
     65 H         -11.1088  -11.9302    0.8906 H       1  LIG1        0.0660
     66 H         -11.1100  -11.9320   -0.8567 H       1  LIG1        0.0660
     67 C          -5.0860  -12.0682   -0.0049 C.ar    1  LIG1        0.0392
     68 C          -6.4155  -12.5280    0.0155 C.ar    1  LIG1        0.0408
     69 C          -6.6444  -13.9051    0.0371 C.ar    1  LIG1       -0.0267
     70 C          -5.5476  -14.7686    0.0374 C.ar    1  LIG1        0.0530
     71 C          -4.2553  -14.2128    0.0158 C.ar    1  LIG1        0.1076
     72 N          -4.0163  -12.8870   -0.0050 N.ar    1  LIG1       -0.2510
     73 H          -7.6695  -14.3016    0.0524 H       1  LIG1        0.0644
     74 H          -4.8222  -10.7954   -0.0253 H       1  LIG1        0.0837
     75 N          -5.7080  -16.0586    0.0568 N.pl3   1  LIG1       -0.3563
     76 H          -6.5602  -16.2956   -0.4095 H       1  LIG1        0.1424
     77 H          -4.9397  -16.4970   -0.4096 H       1  LIG1        0.1424
     78 C          -3.2027  -14.9758    0.0152 C.ar    1  LIG1        0.0673
     79 C          -3.0956  -16.3308    0.0311 C.ar    1  LIG1       -0.0342
     80 C          -1.6995  -16.6496    0.0228 C.ar    1  LIG1       -0.0326
     81 C          -1.0149  -15.4753    0.0005 C.ar    1  LIG1        0.0863
     82 N          -1.9314  -14.4480   -0.0037 N.ar    1  LIG1       -0.3504
     83 H          -1.7102  -13.4790   -0.0188 H       1  LIG1        0.1660
     84 H          -4.0813  -17.1781    0.0516 H       1  LIG1        0.0639
     85 H          -1.1790  -17.8408    0.0340 H       1  LIG1        0.0640
     86 C           0.2644  -15.2449   -0.0144 C.ar    1  LIG1        0.1935
     87 C           1.4036  -16.0227   -0.0257 C.ar    1  LIG1        0.1825
     88 C           2.5284  -15.1107   -0.0402 C.ar    1  LIG1        0.1047
     89 C           2.0015  -13.8356   -0.0370 C.ar    1  LIG1        0.1117
     90 O           0.6075  -13.8921   -0.0212 O.2     1  LIG1       -0.4564
     91 H           2.4909  -12.6312   -0.0449 H       1  LIG1        0.1043
     92 O           1.4811  -17.3204   -0.0238 O.3     1  LIG1       -0.4901
     93 C           0.1640  -17.8772   -0.0232 C.3     1  LIG1        0.0790
     94 H           0.2282  -18.9453   -0.0218 H       1  LIG1        0.0660
     95 H          -0.3610  -17.5504    0.8501 H       1  LIG1        0.0660
     96 H          -0.3609  -17.5526   -0.8972 H       1  LIG1        0.0660
     97 C           3.7821  -15.4542   -0.0537 C.1     1  LIG1       -0.0628
     98 C           4.9406  -15.7715   -0.0661 C.1     1  LIG1       -0.1137
     99 H           5.9725  -16.0542   -0.0771 H       1  LIG1        0.1232
@<TRIPOS>BOND
     1    96    93    1
     2    15    12    1
     3    42    39    1
     4    66    63    1
     5    10     8    1
     6     9     8    1
     7    53    51    1
     8    52    51    1
     9    77    75    1
    10    76    75    1
    11    99    98    1
    12    29    28    1
    13    98    97    3
    14    28    27    3
    15    97    88    1
    16    91    89    1
    17    88    89   ar
    18    88    87   ar
    19    27    22    1
    20    23    21    1
    21    89    90   ar
    22    87    92    1
    23    87    86   ar
    24    74    67    1
    25    92    93    1
    26    93    94    1
    27    93    95    1
    28    90    86   ar
    29    21    22   ar
    30    21    18   ar
    31    22    19   ar
    32    83    82    1
    33    86    81    1
    34    72    67   ar
    35    72    71   ar
    36    67    68   ar
    37    82    81   ar
    38    82    78   ar
    39     2     8    1
    40     2     1   ar
    41     2     3   ar
    42     6     5    1
    43     4    18    1
    44     4     5   ar
    45     4     3   ar
    46    18    16   ar
    47     5     1   ar
    48     1     7    1
    49     3    11    1
    50    81    80   ar
    51    11    12    1
    52    12    13    1
    53    12    14    1
    54    19    30    1
    55    19    17   ar
    56    30    34   ar
    57    30    31   ar
    58    34    33   ar
    59    37    36    1
    60    36    35    3
    61    35    31    1
    62    31    32   ar
    63    33    32   ar
    64    33    45    1
    65    50    48    1
    66    32    38    1
    67    45    48   ar
    68    45    43   ar
    69    48    49   ar
    70    51    43    1
    71    38    39    1
    72    43    44   ar
    73    39    40    1
    74    39    41    1
    75    49    54    1
    76    49    46   ar
    77    54    55    1
    78    44    46   ar
    79    44    47    1
    80    46    56    1
    81    56    60   ar
    82    56    57   ar
    83    60    59   ar
    84    61    57    1
    85    57    58   ar
    86    59    58   ar
    87    59    68    1
    88    58    62    1
    89    78    71    1
    90    78    79   ar
    91    68    69   ar
    92    71    70   ar
    93    62    63    1
    94    63    64    1
    95    63    65    1
    96    16    17   ar
    97    16    24    1
    98    80    79   ar
    99    80    85    1
   100    17    20    1
   101    79    84    1
   102    69    70   ar
   103    69    73    1
   104    70    75    1
   105    24    25    3
   106    25    26    1
