@<TRIPOS>MOLECULE
mol_data/noopt/geoms/mol2/13hl12ih(30)13fe(90)6hd(30).out
 51 54 0 0 0
SMALL
GASTEIGER

@<TRIPOS>ATOM
      1 C           1.1215   -0.3259    0.0002 C.ar    1  LIG1        0.0268
      2 C           0.7176    0.9721   -0.0005 C.ar    1  LIG1        0.0851
      3 C          -0.7144    0.9744    0.0003 C.ar    1  LIG1        0.1688
      4 C          -1.1226   -0.3223   -0.0003 C.ar    1  LIG1        0.1265
      5 N          -0.0018   -1.1217    0.0001 N.ar    1  LIG1       -0.3537
      6 H          -0.0034   -2.1157   -0.0003 H       1  LIG1        0.1656
      7 H           2.3167   -0.8373    0.0007 H       1  LIG1        0.0827
      8 N           1.4918    2.0164   -0.0003 N.pl3   1  LIG1       -0.3540
      9 H           2.3463    1.7980   -0.4717 H       1  LIG1        0.1425
     10 H           1.0345    2.7705   -0.4717 H       1  LIG1        0.1425
     11 O          -1.4853    2.0212    0.0010 O.3     1  LIG1       -0.4910
     12 C          -0.6829    3.2049    0.0012 C.3     1  LIG1        0.0790
     13 H          -1.3178    4.0662    0.0016 H       1  LIG1        0.0660
     14 H          -0.0650    3.2168    0.8747 H       1  LIG1        0.0660
     15 H          -0.0654    3.2174   -0.8726 H       1  LIG1        0.0660
     16 C          -2.3194   -0.8299   -0.0001 C.ar    1  LIG1        0.1602
     17 C          -3.5617   -0.4190    0.4367 C.ar    1  LIG1        0.0182
     18 C          -4.4865   -1.4880    0.1218 C.ar    1  LIG1        0.0762
     19 C          -3.7476   -2.4815   -0.4869 C.ar    1  LIG1        0.1762
     20 O          -2.4085   -2.0991   -0.5736 O.2     1  LIG1       -0.4495
     21 C          -3.8699    0.7018    1.0195 C.3     1  LIG1       -0.0343
     22 H          -4.7369    0.5596    1.6303 H       1  LIG1        0.0279
     23 H          -4.0744    1.4452    0.2775 H       1  LIG1        0.0279
     24 H          -3.0521    1.0228    1.6302 H       1  LIG1        0.0279
     25 N          -5.7617   -1.4857    0.3749 N.pl3   1  LIG1       -0.3548
     26 H          -6.1789   -0.6684   -0.0227 H       1  LIG1        0.1424
     27 H          -6.1818   -2.3014   -0.0227 H       1  LIG1        0.1424
     28 C          -4.0048   -3.6554   -0.9826 C.ar    1  LIG1        0.1276
     29 C          -4.2643   -4.8370   -0.3625 C.ar    1  LIG1        0.1612
     30 C          -4.4778   -5.8180   -1.3837 C.ar    1  LIG1        0.0921
     31 C          -4.3412   -5.1923   -2.5828 C.ar    1  LIG1        0.0695
     32 N          -4.0511   -3.8683   -2.3418 N.ar    1  LIG1       -0.3477
     33 H          -3.8998   -3.1759   -3.0387 H       1  LIG1        0.1661
     34 O          -4.3081   -5.0363    0.9214 O.3     1  LIG1       -0.5034
     35 H          -3.4350   -5.2796    1.2379 H       1  LIG1        0.2923
     36 C          -4.7524   -7.0756   -1.2016 C.1     1  LIG1       -0.0638
     37 C          -5.0060   -8.2376   -1.0333 C.1     1  LIG1       -0.1137
     38 H          -5.2320   -9.2726   -0.8835 H       1  LIG1        0.1232
     39 C          -3.3499   -5.5826   -4.6764 C.ar    1  LIG1        0.1254
     40 C          -4.4422   -5.6566   -3.7929 C.ar    1  LIG1        0.0403
     41 C          -5.6281   -6.2374   -4.2460 C.ar    1  LIG1       -0.0304
     42 C          -5.6826   -6.7203   -5.5546 C.ar    1  LIG1        0.0706
     43 C          -4.5372   -6.6006   -6.3629 C.ar    1  LIG1        0.0471
     44 N          -3.3850   -6.0433   -5.9419 N.ar    1  LIG1       -0.2388
     45 H          -6.5029   -6.3120   -3.5846 H       1  LIG1        0.0638
     46 H          -4.5389   -7.0352   -7.5880 H       1  LIG1        0.0843
     47 N          -2.2247   -5.0508   -4.3007 N.pl3   1  LIG1       -0.3426
     48 H          -1.4641   -5.5945   -4.6556 H       1  LIG1        0.1437
     49 H          -2.1618   -4.1181   -4.6557 H       1  LIG1        0.1437
     50 N          -7.7169   -7.7537   -6.4377 N.1     1  LIG1       -0.1908
     51 C          -6.7635   -7.2694   -6.0238 C.1     1  LIG1        0.1007
@<TRIPOS>BOND
     1    46    43    1
     2    50    51    3
     3    43    44   ar
     4    43    42   ar
     5    51    42    1
     6    44    39   ar
     7    42    41   ar
     8    39    47    1
     9    39    40   ar
    10    49    47    1
    11    48    47    1
    12    41    40   ar
    13    41    45    1
    14    40    31    1
    15    33    32    1
    16    31    32   ar
    17    31    30   ar
    18    32    28   ar
    19    30    36    1
    20    30    29   ar
    21    36    37    3
    22    37    38    1
    23    28    19    1
    24    28    29   ar
    25    15    12    1
    26    20    19   ar
    27    20    16   ar
    28    19    18   ar
    29    10     8    1
    30     9     8    1
    31    29    34    1
    32    27    25    1
    33    26    25    1
    34     2     8    1
    35     2     1   ar
    36     2     3   ar
    37     4    16    1
    38     4     5   ar
    39     4     3   ar
    40     6     5    1
    41    16    17   ar
    42     5     1   ar
    43     1     7    1
    44     3    11    1
    45    11    12    1
    46    12    13    1
    47    12    14    1
    48    18    25    1
    49    18    17   ar
    50    23    21    1
    51    17    21    1
    52    34    35    1
    53    21    24    1
    54    21    22    1
