@<TRIPOS>MOLECULE
mol_data/noopt/geoms/mol2/13hl12ia-13hl-13ae.out
 50 53 0 0 0
SMALL
GASTEIGER

@<TRIPOS>ATOM
      1 C           1.1215   -0.3259    0.0002 C.ar    1  LIG1        0.0268
      2 C           0.7176    0.9721   -0.0005 C.ar    1  LIG1        0.0851
      3 C          -0.7144    0.9744    0.0003 C.ar    1  LIG1        0.1688
      4 C          -1.1226   -0.3223   -0.0003 C.ar    1  LIG1        0.1264
      5 N          -0.0018   -1.1217    0.0001 N.ar    1  LIG1       -0.3537
      6 H          -0.0034   -2.1157   -0.0003 H       1  LIG1        0.1656
      7 H           2.3167   -0.8373    0.0007 H       1  LIG1        0.0827
      8 N           1.4918    2.0164   -0.0003 N.pl3   1  LIG1       -0.3540
      9 H           2.3463    1.7980   -0.4717 H       1  LIG1        0.1425
     10 H           1.0345    2.7705   -0.4717 H       1  LIG1        0.1425
     11 O          -1.4853    2.0212    0.0010 O.3     1  LIG1       -0.4910
     12 C          -0.6829    3.2049    0.0012 C.3     1  LIG1        0.0790
     13 H          -1.3178    4.0662    0.0016 H       1  LIG1        0.0660
     14 H          -0.0650    3.2168    0.8747 H       1  LIG1        0.0660
     15 H          -0.0654    3.2174   -0.8726 H       1  LIG1        0.0660
     16 C          -2.3194   -0.8299   -0.0001 C.ar    1  LIG1        0.1584
     17 C          -3.6025   -0.3232    0.0001 C.ar    1  LIG1       -0.0025
     18 C          -4.4979   -1.4613    0.0002 C.ar    1  LIG1       -0.0108
     19 C          -3.7022   -2.5884    0.0001 C.ar    1  LIG1        0.1540
     20 O          -2.3550   -2.2250   -0.0002 O.2     1  LIG1       -0.4514
     21 C          -3.9650    0.9255    0.0001 C.3     1  LIG1       -0.0360
     22 H          -4.9034    1.0245    0.5046 H       1  LIG1        0.0279
     23 H          -4.0645    1.2681   -1.0087 H       1  LIG1        0.0279
     24 H          -3.2254    1.5116    0.5045 H       1  LIG1        0.0279
     25 H          -5.7966   -1.4035    0.0004 H       1  LIG1        0.0659
     26 C          -3.9132   -3.8712    0.0002 C.ar    1  LIG1        0.1072
     27 C          -5.0769   -4.5736    0.0165 C.ar    1  LIG1        0.0962
     28 C          -4.7371   -5.9646    0.0089 C.ar    1  LIG1        0.1679
     29 C          -3.3806   -6.0511   -0.0134 C.ar    1  LIG1        0.1075
     30 N          -2.8722   -4.7718   -0.0184 N.ar    1  LIG1       -0.3462
     31 H          -1.9067   -4.5358   -0.0337 H       1  LIG1        0.1662
     32 N          -6.2758   -4.0713    0.0369 N.pl3   1  LIG1       -0.3534
     33 H          -6.2746   -3.1866   -0.4292 H       1  LIG1        0.1425
     34 H          -6.9055   -4.6927   -0.4293 H       1  LIG1        0.1425
     35 O          -5.5692   -6.9633    0.0207 O.3     1  LIG1       -0.4911
     36 C          -6.9104   -6.4671    0.0250 C.3     1  LIG1        0.0790
     37 H          -7.5950   -7.2894    0.0346 H       1  LIG1        0.0660
     38 H          -7.0649   -5.8642    0.8955 H       1  LIG1        0.0660
     39 H          -7.0749   -5.8762   -0.8517 H       1  LIG1        0.0660
     40 C          -2.6018   -7.0920   -0.0279 C.ar    1  LIG1        0.0678
     41 C          -2.9016   -8.4179   -0.0214 C.ar    1  LIG1       -0.0194
     42 C          -1.6631   -9.1365   -0.0438 C.ar    1  LIG1        0.0426
     43 C          -0.6610   -8.2181   -0.0646 C.ar    1  LIG1        0.0177
     44 N          -1.2313   -6.9651   -0.0545 N.ar    1  LIG1       -0.3583
     45 H          -0.7326   -6.1053   -0.0654 H       1  LIG1        0.1654
     46 H           0.6289   -8.3775   -0.0891 H       1  LIG1        0.0819
     47 H          -4.0942   -8.9346    0.0023 H       1  LIG1        0.0651
     48 C          -1.5195  -10.4285   -0.0445 C.1     1  LIG1       -0.0682
     49 C          -1.3868  -11.6224   -0.0452 C.1     1  LIG1       -0.1139
     50 H          -1.2685  -12.6858   -0.0457 H       1  LIG1        0.1232
@<TRIPOS>BOND
     1    23    21    1
     2    15    12    1
     3    39    36    1
     4    10     8    1
     5     9     8    1
     6    34    32    1
     7    33    32    1
     8    46    43    1
     9    45    44    1
    10    43    44   ar
    11    43    42   ar
    12    44    40   ar
    13    50    49    1
    14    49    48    3
    15    48    42    1
    16    42    41   ar
    17    31    30    1
    18    40    41   ar
    19    40    29    1
    20    41    47    1
    21    30    29   ar
    22    30    26   ar
    23    29    28   ar
    24     2     8    1
    25     2     1   ar
    26     2     3   ar
    27     6     5    1
    28     4    16    1
    29     4     5   ar
    30     4     3   ar
    31    20    16   ar
    32    20    19   ar
    33    16    17   ar
    34    17    21    1
    35    17    18   ar
    36     5     1   ar
    37    19    26    1
    38    19    18   ar
    39    21    24    1
    40    21    22    1
    41     1     7    1
    42    26    27   ar
    43    18    25    1
    44     3    11    1
    45    11    12    1
    46    12    13    1
    47    12    14    1
    48    28    27   ar
    49    28    35    1
    50    27    32    1
    51    35    36    1
    52    36    37    1
    53    36    38    1
