@<TRIPOS>MOLECULE
mol_data/noopt/geoms/mol2/13hl6ff-6ld4ie.out
 56 59 0 0 0
SMALL
GASTEIGER

@<TRIPOS>ATOM
      1 C           1.1215   -0.3259    0.0002 C.ar    1  LIG1        0.0267
      2 C           0.7176    0.9721   -0.0005 C.ar    1  LIG1        0.0850
      3 C          -0.7144    0.9744    0.0003 C.ar    1  LIG1        0.1659
      4 C          -1.1226   -0.3223   -0.0003 C.ar    1  LIG1        0.0958
      5 N          -0.0018   -1.1217    0.0001 N.ar    1  LIG1       -0.3559
      6 H          -0.0034   -2.1157   -0.0003 H       1  LIG1        0.1655
      7 H           2.3167   -0.8373    0.0007 H       1  LIG1        0.0827
      8 N           1.4918    2.0164   -0.0003 N.pl3   1  LIG1       -0.3540
      9 H           2.3463    1.7980   -0.4717 H       1  LIG1        0.1425
     10 H           1.0345    2.7705   -0.4717 H       1  LIG1        0.1425
     11 O          -1.4853    2.0212    0.0010 O.3     1  LIG1       -0.4911
     12 C          -0.6829    3.2049    0.0012 C.3     1  LIG1        0.0790
     13 H          -1.3178    4.0662    0.0016 H       1  LIG1        0.0660
     14 H          -0.0650    3.2168    0.8747 H       1  LIG1        0.0660
     15 H          -0.0654    3.2174   -0.8726 H       1  LIG1        0.0660
     16 C          -2.5002   -2.2250   -0.0210 C.ar    1  LIG1        0.2225
     17 C          -2.3194   -0.8299   -0.0001 C.ar    1  LIG1        0.0667
     18 C          -3.4501   -0.0114    0.0210 C.ar    1  LIG1       -0.0037
     19 C          -4.7120   -0.6083    0.0204 C.ar    1  LIG1        0.1438
     20 C          -4.7903   -2.0130   -0.0016 C.ar    1  LIG1        0.1212
     21 N          -3.7099   -2.8177   -0.0220 N.ar    1  LIG1       -0.2086
     22 H          -3.3484    1.0830    0.0367 H       1  LIG1        0.0663
     23 O          -1.4782   -3.0283   -0.0410 O.3     1  LIG1       -0.4919
     24 H          -0.6671   -2.5149   -0.0459 H       1  LIG1        0.2937
     25 O          -5.7953    0.1100    0.0393 O.3     1  LIG1       -0.5046
     26 H          -6.5625   -0.4671    0.0440 H       1  LIG1        0.2922
     27 C          -6.0101   -4.0206   -0.0037 C.ar    1  LIG1        0.2246
     28 C          -5.9423   -2.6153   -0.0030 C.ar    1  LIG1        0.0662
     29 C          -7.1354   -1.8903   -0.0037 C.ar    1  LIG1       -0.0366
     30 C          -8.3451   -2.5870   -0.0051 C.ar    1  LIG1        0.0216
     31 C          -8.3099   -3.9935   -0.0058 C.ar    1  LIG1        0.0837
     32 N          -7.1681   -4.7088   -0.0050 N.ar    1  LIG1       -0.2117
     33 H          -7.1222   -0.7912   -0.0042 H       1  LIG1        0.0633
     34 O          -4.9267   -4.7392   -0.0030 O.3     1  LIG1       -0.4792
     35 C          -5.2740   -6.1263   -0.0029 C.3     1  LIG1        0.0804
     36 H          -4.3821   -6.7174   -0.0025 H       1  LIG1        0.0660
     37 H          -5.8502   -6.3497    0.8707 H       1  LIG1        0.0660
     38 H          -5.8497   -6.3500   -0.8766 H       1  LIG1        0.0660
     39 N         -10.4863   -1.4034   -0.0066 N.2     1  LIG1       -0.1570
     40 C          -9.4828   -1.9581   -0.0059 C.2     1  LIG1        0.0591
     41 C         -10.6557   -4.0271   -0.0069 C.ar    1  LIG1       -0.0378
     42 C         -11.8177   -4.8228   -0.0068 C.ar    1  LIG1       -0.0568
     43 C          -9.4096   -4.6867   -0.0070 C.ar    1  LIG1        0.0054
     44 C         -11.7445   -6.2140   -0.0073 C.ar    1  LIG1       -0.0460
     45 H         -12.7895   -4.3343   -0.0065 H       1  LIG1        0.0621
     46 C          -9.3361   -6.0754   -0.0075 C.ar    1  LIG1       -0.0369
     47 C         -10.5017   -6.8486   -0.0078 C.ar    1  LIG1        0.0253
     48 H          -8.3633   -6.5605   -0.0075 H       1  LIG1        0.0636
     49 H         -12.8375   -6.9178   -0.0072 H       1  LIG1        0.0630
     50 C         -10.7879   -2.7335   -0.0067 C.3     1  LIG1       -0.0230
     51 H         -11.6933   -2.4675    0.4978 H       1  LIG1        0.0317
     52 H         -10.8242   -2.3785   -1.0155 H       1  LIG1        0.0317
     53 H          -9.9550   -2.2900    0.4977 H       1  LIG1        0.0855
     54 C         -10.4268   -8.1464   -0.0081 C.1     1  LIG1       -0.0696
     55 C         -10.3575   -9.3456   -0.0084 C.1     1  LIG1       -0.1139
     56 H         -10.2958  -10.4138   -0.0086 H       1  LIG1        0.1232
@<TRIPOS>BOND
     1    52    50    1
     2    38    35    1
     3    15    12    1
     4    10     8    1
     5     9     8    1
     6    24    23    1
     7    23    16    1
     8    21    16   ar
     9    21    20   ar
    10    16    17   ar
    11    56    55    1
    12    55    54    3
    13    54    47    1
    14    47    46   ar
    15    47    44   ar
    16    46    48    1
    17    46    43   ar
    18    44    49    1
    19    44    42   ar
    20    43    41   ar
    21    43    31    1
    22    41    42   ar
    23    41    50    1
    24    42    45    1
    25    50    51    1
    26    39    40    2
    27    40    30    1
    28    40    53    1
    29    31    30   ar
    30    31    32   ar
    31    30    29   ar
    32    32    27   ar
    33    33    29    1
    34    29    28   ar
    35    27    28   ar
    36    27    34    1
    37    28    20    1
    38    34    35    1
    39    35    36    1
    40    35    37    1
    41    20    19   ar
    42     2     8    1
    43     2     1   ar
    44     2     3   ar
    45     4    17    1
    46     4     5   ar
    47     4     3   ar
    48     6     5    1
    49    17    18   ar
    50     5     1   ar
    51     1     7    1
    52     3    11    1
    53    11    12    1
    54    12    13    1
    55    12    14    1
    56    19    18   ar
    57    19    25    1
    58    18    22    1
    59    25    26    1
