@<TRIPOS>MOLECULE
mol_data/noopt/geoms/mol2/13hl13hl-13hl.out
 44 45 0 0 0
SMALL
GASTEIGER

@<TRIPOS>ATOM
      1 C           1.1215   -0.3259    0.0002 C.ar    1  LIG1        0.0267
      2 C           0.7176    0.9721   -0.0005 C.ar    1  LIG1        0.0851
      3 C          -0.7144    0.9744    0.0003 C.ar    1  LIG1        0.1673
      4 C          -1.1226   -0.3223   -0.0003 C.ar    1  LIG1        0.1089
      5 N          -0.0018   -1.1217    0.0001 N.ar    1  LIG1       -0.3549
      6 H          -0.0034   -2.1157   -0.0003 H       1  LIG1        0.1655
      7 H           2.3167   -0.8373    0.0007 H       1  LIG1        0.0827
      8 N           1.4918    2.0164   -0.0003 N.pl3   1  LIG1       -0.3540
      9 H           2.3463    1.7980   -0.4717 H       1  LIG1        0.1425
     10 H           1.0345    2.7705   -0.4717 H       1  LIG1        0.1425
     11 O          -1.4853    2.0212    0.0010 O.3     1  LIG1       -0.4911
     12 C          -0.6829    3.2049    0.0012 C.3     1  LIG1        0.0790
     13 H          -1.3178    4.0662    0.0016 H       1  LIG1        0.0660
     14 H          -0.0650    3.2168    0.8747 H       1  LIG1        0.0660
     15 H          -0.0654    3.2174   -0.8726 H       1  LIG1        0.0660
     16 C          -2.3194   -0.8299   -0.0001 C.ar    1  LIG1        0.0918
     17 C          -2.7274   -2.1266   -0.0005 C.ar    1  LIG1        0.0998
     18 C          -4.1594   -2.1244    0.0011 C.ar    1  LIG1        0.2267
     19 C          -4.5635   -0.8264    0.0006 C.ar    1  LIG1        0.1165
     20 N          -3.4402   -0.0305    0.0003 N.ar    1  LIG1       -0.3471
     21 H          -3.4386    0.9635   -0.0001 H       1  LIG1        0.1662
     22 N          -1.9565   -3.1734   -0.0006 N.pl3   1  LIG1       -0.3533
     23 H          -2.4164   -3.9259   -0.4720 H       1  LIG1        0.1425
     24 H          -1.1015   -2.9576   -0.4721 H       1  LIG1        0.1425
     25 O          -4.9337   -3.1687    0.0023 O.3     1  LIG1       -0.2836
     26 C          -6.3008   -2.7494    0.0027 C.3     2  LIG2       -0.0776
     27 H          -6.9376   -3.6092    0.0035 H       1  LIG1        0.0194
     28 H          -6.4935   -2.1620    0.8761 H       1  LIG1        0.0194
     29 H          -6.4943   -2.1631   -0.8712 H       1  LIG1        0.0194
     30 C          -5.7587   -0.3150    0.0014 C.ar    1  LIG1        0.1152
     31 C          -6.1626    0.9830    0.0016 C.ar    1  LIG1        0.0962
     32 C          -7.5946    0.9853    0.0038 C.ar    1  LIG1        0.1607
     33 C          -8.0028   -0.3114    0.0030 C.ar    1  LIG1        0.0719
     34 N          -6.8820   -1.1108    0.0021 N.ar    1  LIG1       -0.2477
     35 H          -6.8836   -2.1048    0.0013 H       1  LIG1        0.0194
     36 H          -9.1996   -0.8190    0.0041 H       1  LIG1        0.0868
     37 N          -5.3884    2.0273    0.0015 N.pl3   1  LIG1       -0.3534
     38 H          -4.5340    1.8088   -0.4699 H       1  LIG1        0.1425
     39 H          -5.8458    2.7813   -0.4699 H       1  LIG1        0.1425
     40 O          -8.3655    2.0321    0.0056 O.3     1  LIG1       -0.4917
     41 C          -7.5631    3.2158    0.0062 C.3     1  LIG1        0.0789
     42 H          -8.1980    4.0771    0.0075 H       1  LIG1        0.0660
     43 H          -6.9448    3.2271    0.8794 H       1  LIG1        0.0660
     44 H          -6.9461    3.2289   -0.8679 H       1  LIG1        0.0660
@<TRIPOS>BOND
     1    15    12    1
     2    29    26    1
     3    44    41    1
     4    24    22    1
     5    23    22    1
     6    10     8    1
     7     9     8    1
     8    39    37    1
     9    38    37    1
    10    22    17    1
    11     2     8    1
    12     2     1   ar
    13     2     3   ar
    14    17    16   ar
    15    17    18   ar
    16     6     5    1
    17     4    16    1
    18     4     5   ar
    19     4     3   ar
    20    21    20    1
    21    16    20   ar
    22     5     1   ar
    23     1     7    1
    24     3    11    1
    25    20    19   ar
    26    19    18   ar
    27    19    30    1
    28    11    12    1
    29    18    25    1
    30    12    13    1
    31    12    14    1
    32    35    26    1
    33    30    31   ar
    34    30    34   ar
    35    37    31    1
    36    31    32   ar
    37    34    33   ar
    38    26    27    1
    39    26    28    1
    40    33    32   ar
    41    33    36    1
    42    32    40    1
    43    40    41    1
    44    41    42    1
    45    41    43    1
