@<TRIPOS>MOLECULE
mol_data/noopt/geoms/mol2/13hl13de(130)12li(220)6ea(310).out
 52 55 0 0 0
SMALL
GASTEIGER

@<TRIPOS>ATOM
      1 C           1.1215   -0.3259    0.0002 C.ar    1  LIG1        0.0267
      2 C           0.7176    0.9721   -0.0005 C.ar    1  LIG1        0.0851
      3 C          -0.7144    0.9744    0.0003 C.ar    1  LIG1        0.1672
      4 C          -1.1226   -0.3223   -0.0003 C.ar    1  LIG1        0.1083
      5 N          -0.0018   -1.1217    0.0001 N.ar    1  LIG1       -0.3549
      6 H          -0.0034   -2.1157   -0.0003 H       1  LIG1        0.1655
      7 H           2.3167   -0.8373    0.0007 H       1  LIG1        0.0827
      8 N           1.4918    2.0164   -0.0003 N.pl3   1  LIG1       -0.3540
      9 H           2.3463    1.7980   -0.4717 H       1  LIG1        0.1425
     10 H           1.0345    2.7705   -0.4717 H       1  LIG1        0.1425
     11 O          -1.4853    2.0212    0.0010 O.3     1  LIG1       -0.4911
     12 C          -0.6829    3.2049    0.0012 C.3     1  LIG1        0.0790
     13 H          -1.3178    4.0662    0.0016 H       1  LIG1        0.0660
     14 H          -0.0650    3.2168    0.8747 H       1  LIG1        0.0660
     15 H          -0.0654    3.2174   -0.8726 H       1  LIG1        0.0660
     16 C          -2.3194   -0.8299   -0.0001 C.ar    1  LIG1        0.0859
     17 C          -2.8592   -1.8156    0.7647 C.ar    1  LIG1        0.0946
     18 C          -4.2194   -1.9829    0.3493 C.ar    1  LIG1        0.0711
     19 C          -4.4515   -1.0908   -0.6499 C.ar    1  LIG1        0.1031
     20 N          -3.2908   -0.3832   -0.8673 N.ar    1  LIG1       -0.3484
     21 H          -3.1730    0.3365   -1.5428 H       1  LIG1        0.1661
     22 N          -1.7113   -3.0708    2.5233 N.1     1  LIG1       -0.1908
     23 C          -2.2493   -2.4825    1.6991 C.1     1  LIG1        0.1026
     24 C          -5.0772   -2.8300    0.8358 C.1     1  LIG1       -0.0661
     25 C          -5.8697   -3.6127    1.2853 C.1     1  LIG1       -0.1138
     26 H          -6.5758   -4.3099    1.6857 H       1  LIG1        0.1232
     27 C          -5.5272   -0.8614   -1.3429 C.ar    1  LIG1        0.1946
     28 C          -6.2048   -1.5139   -2.3518 C.ar    1  LIG1        0.1706
     29 C          -7.3528   -0.6940   -2.6783 C.ar    1  LIG1        0.0378
     30 C          -7.3006    0.4057   -1.8467 C.ar    1  LIG1        0.1450
     31 O          -6.1839    0.3253   -1.0140 O.2     1  LIG1       -0.4492
     32 O          -5.8958   -2.6433   -2.9168 O.3     1  LIG1       -0.4910
     33 C          -7.0826   -3.4136   -3.1242 C.3     1  LIG1        0.0790
     34 H          -6.8279   -4.3430   -3.5894 H       1  LIG1        0.0660
     35 H          -7.5538   -3.6035   -2.1825 H       1  LIG1        0.0660
     36 H          -7.7542   -2.8709   -3.7561 H       1  LIG1        0.0660
     37 C          -8.2448   -0.9654   -3.5846 C.3     1  LIG1       -0.0326
     38 H          -8.5715   -1.9780   -3.4715 H       1  LIG1        0.0280
     39 H          -7.8168   -0.8352   -4.5567 H       1  LIG1        0.0280
     40 H          -9.0802   -0.3064   -3.4715 H       1  LIG1        0.0280
     41 C          -8.9997    1.4982   -0.6477 C.ar    1  LIG1        0.1237
     42 C          -8.0303    1.4664   -1.6668 C.ar    1  LIG1        0.0514
     43 C          -7.8737    2.5952   -2.4733 C.ar    1  LIG1       -0.0470
     44 C          -8.6833    3.7075   -2.2371 C.ar    1  LIG1       -0.0428
     45 C          -9.6249    3.6433   -1.1936 C.ar    1  LIG1        0.0290
     46 N          -9.7892    2.5627   -0.4058 N.ar    1  LIG1       -0.2460
     47 H          -7.1273    2.6070   -3.2802 H       1  LIG1        0.0626
     48 H         -10.4013    4.6532   -0.9348 H       1  LIG1        0.0830
     49 C          -9.1827    0.4720    0.1291 C.1     1  LIG1       -0.0491
     50 C          -9.3517   -0.4762    0.8469 C.1     1  LIG1       -0.1124
     51 H          -9.5023   -1.3209    1.4863 H       1  LIG1        0.1232
     52 H          -8.5763    4.7824   -2.9604 H       1  LIG1        0.0633
@<TRIPOS>BOND
     1    39    37    1
     2    36    33    1
     3    34    33    1
     4    37    40    1
     5    37    38    1
     6    37    29    1
     7    47    43    1
     8    33    32    1
     9    33    35    1
    10    52    44    1
    11    32    28    1
    12    29    28   ar
    13    29    30   ar
    14    43    44   ar
    15    43    42   ar
    16    28    27   ar
    17    44    45   ar
    18    30    42    1
    19    30    31   ar
    20    42    41   ar
    21    21    20    1
    22    27    31   ar
    23    27    19    1
    24    45    48    1
    25    45    46   ar
    26    15    12    1
    27    20    19   ar
    28    20    16   ar
    29    19    18   ar
    30    41    46   ar
    31    41    49    1
    32    10     8    1
    33     9     8    1
    34     2     8    1
    35     2     1   ar
    36     2     3   ar
    37     4    16    1
    38     4     5   ar
    39     4     3   ar
    40     6     5    1
    41    16    17   ar
    42     5     1   ar
    43     1     7    1
    44     3    11    1
    45    11    12    1
    46    12    13    1
    47    12    14    1
    48    49    50    3
    49    18    17   ar
    50    18    24    1
    51    17    23    1
    52    24    25    3
    53    50    51    1
    54    25    26    1
    55    23    22    3
