@<TRIPOS>MOLECULE
mol_data/noopt/geoms/mol2/13hl13hl.out
 30 31 0 0 0
SMALL
GASTEIGER

@<TRIPOS>ATOM
      1 C           1.1215   -0.3259    0.0002 C.ar    1  LIG1        0.0267
      2 C           0.7176    0.9721   -0.0005 C.ar    1  LIG1        0.0851
      3 C          -0.7144    0.9744    0.0003 C.ar    1  LIG1        0.1673
      4 C          -1.1226   -0.3223   -0.0003 C.ar    1  LIG1        0.1089
      5 N          -0.0018   -1.1217    0.0001 N.ar    1  LIG1       -0.3549
      6 H          -0.0034   -2.1157   -0.0003 H       1  LIG1        0.1655
      7 H           2.3167   -0.8373    0.0007 H       1  LIG1        0.0827
      8 N           1.4918    2.0164   -0.0003 N.pl3   1  LIG1       -0.3540
      9 H           2.3463    1.7980   -0.4717 H       1  LIG1        0.1425
     10 H           1.0345    2.7705   -0.4717 H       1  LIG1        0.1425
     11 O          -1.4853    2.0212    0.0010 O.3     1  LIG1       -0.4911
     12 C          -0.6829    3.2049    0.0012 C.3     1  LIG1        0.0790
     13 H          -1.3178    4.0662    0.0016 H       1  LIG1        0.0660
     14 H          -0.0650    3.2168    0.8747 H       1  LIG1        0.0660
     15 H          -0.0654    3.2174   -0.8726 H       1  LIG1        0.0660
     16 C          -2.3194   -0.8299   -0.0001 C.ar    1  LIG1        0.0912
     17 C          -3.5353   -0.2219   -0.0003 C.ar    1  LIG1        0.0940
     18 C          -4.5290   -1.2530    0.0012 C.ar    1  LIG1        0.1585
     19 C          -3.8767   -2.4457    0.0005 C.ar    1  LIG1        0.0463
     20 N          -2.5238   -2.1913    0.0002 N.ar    1  LIG1       -0.3549
     21 H          -1.8081   -2.8811   -0.0004 H       1  LIG1        0.1655
     22 H          -4.3398   -3.6604    0.0012 H       1  LIG1        0.0845
     23 N          -3.7520    1.0599   -0.0003 N.pl3   1  LIG1       -0.3535
     24 H          -3.0025    1.5247   -0.4717 H       1  LIG1        0.1425
     25 H          -4.6126    1.2525   -0.4717 H       1  LIG1        0.1425
     26 O          -5.8180   -1.0837    0.0025 O.3     1  LIG1       -0.4918
     27 C          -6.1157    0.3150    0.0029 C.3     1  LIG1        0.0789
     28 H          -7.1766    0.4539    0.0038 H       1  LIG1        0.0660
     29 H          -5.6958    0.7688    0.8763 H       1  LIG1        0.0660
     30 H          -5.6973    0.7690   -0.8710 H       1  LIG1        0.0660
@<TRIPOS>BOND
     1    15    12    1
     2    30    27    1
     3    25    23    1
     4    10     8    1
     5    24    23    1
     6     9     8    1
     7     2     8    1
     8     2     1   ar
     9     2     3   ar
    10    21    20    1
    11    17    23    1
    12    17    16   ar
    13    17    18   ar
    14     4    16    1
    15     4     5   ar
    16     4     3   ar
    17     6     5    1
    18    16    20   ar
    19     5     1   ar
    20    20    19   ar
    21     1     7    1
    22     3    11    1
    23    19    18   ar
    24    19    22    1
    25    11    12    1
    26    18    26    1
    27    12    13    1
    28    12    14    1
    29    26    27    1
    30    27    28    1
    31    27    29    1
