@<TRIPOS>MOLECULE
mol_data/noopt/geoms/mol2/13ia13ai(190)13ad(210)4hd(10).out
 46 49 0 0 0
SMALL
GASTEIGER

@<TRIPOS>ATOM
      1 C           1.1215   -0.3259    0.0002 C.ar    1  LIG1        0.0051
      2 C           0.7176    0.9721   -0.0005 C.ar    1  LIG1       -0.0325
      3 C          -0.7144    0.9744    0.0003 C.ar    1  LIG1       -0.0321
      4 C          -1.1226   -0.3223   -0.0003 C.ar    1  LIG1        0.0631
      5 N          -0.0018   -1.1217    0.0001 N.ar    1  LIG1       -0.3593
      6 H          -0.0034   -2.1157   -0.0003 H       1  LIG1        0.1654
      7 H           2.3167   -0.8373    0.0007 H       1  LIG1        0.0809
      8 C           1.4920    2.0167   -0.0003 C.3     1  LIG1       -0.0383
      9 H           1.0026    2.8234    0.5042 H       1  LIG1        0.0278
     10 H           1.7045    2.3034   -1.0091 H       1  LIG1        0.0278
     11 H           2.4062    1.7828    0.5041 H       1  LIG1        0.0278
     12 H          -1.4853    2.0212    0.0010 H       1  LIG1        0.0642
     13 C          -2.3194   -0.8299   -0.0001 C.ar    1  LIG1        0.0636
     14 C          -2.7326   -2.1144   -0.1651 C.ar    1  LIG1       -0.0314
     15 C          -4.1619   -2.1186   -0.0764 C.ar    1  LIG1       -0.0231
     16 C          -4.5591   -0.8368    0.1406 C.ar    1  LIG1        0.0663
     17 N          -3.4343   -0.0444    0.1876 N.ar    1  LIG1       -0.3517
     18 H          -3.4281    0.9387    0.3344 H       1  LIG1        0.1660
     19 H          -1.9681   -3.1462   -0.3676 H       1  LIG1        0.0642
     20 C          -4.9397   -3.1552   -0.1828 C.3     1  LIG1       -0.0376
     21 H          -4.4790   -3.9969    0.2907 H       1  LIG1        0.0278
     22 H          -5.1034   -3.3736   -1.2175 H       1  LIG1        0.0278
     23 H          -5.8766   -2.9482    0.2906 H       1  LIG1        0.0278
     24 C          -5.7496   -0.3364    0.2902 C.ar    1  LIG1        0.0648
     25 C          -6.9627   -0.8178   -0.0899 C.ar    1  LIG1       -0.0169
     26 C          -7.9491    0.1352    0.3220 C.ar    1  LIG1        0.0776
     27 C          -7.2955    1.1561    0.9372 C.ar    1  LIG1        0.0663
     28 N          -5.9486    0.8717    0.9196 N.ar    1  LIG1       -0.3519
     29 H          -5.2335    1.4469    1.3012 H       1  LIG1        0.1660
     30 H          -7.1828   -1.9369   -0.7137 H       1  LIG1        0.0652
     31 N         -10.3663   -0.0363   -0.0151 N.1     1  LIG1       -0.1908
     32 C          -9.2335    0.0441    0.1429 C.1     1  LIG1        0.1013
     33 C          -6.8555    3.2198    1.9626 C.ar    1  LIG1        0.0339
     34 C          -7.4007    4.3829    2.5399 C.ar    1  LIG1       -0.0392
     35 C          -7.7527    2.2467    1.4771 C.ar    1  LIG1        0.0214
     36 C          -8.7780    4.5711    2.6303 C.ar    1  LIG1       -0.0426
     37 H          -6.7263    5.1465    2.9210 H       1  LIG1        0.0636
     38 C          -9.1278    2.4341    1.5671 C.ar    1  LIG1       -0.0334
     39 C          -9.6501    3.5965    2.1437 C.ar    1  LIG1        0.0525
     40 H          -9.7991    1.6689    1.1856 H       1  LIG1        0.0637
     41 H          -9.2470    5.6572    3.1694 H       1  LIG1        0.0631
     42 N          -5.5621    3.1012    1.9063 N.pl3   1  LIG1       -0.3575
     43 H          -5.3254    2.2596    1.4209 H       1  LIG1        0.1423
     44 H          -5.1763    3.8857    1.4208 H       1  LIG1        0.1423
     45 N         -12.0709    3.9157    2.2972 N.1     1  LIG1       -0.1909
     46 C         -10.9364    3.7661    2.2253 C.1     1  LIG1        0.0992
@<TRIPOS>BOND
     1    22    20    1
     2    10     8    1
     3    30    25    1
     4    19    14    1
     5    20    15    1
     6    20    23    1
     7    20    21    1
     8    14    15   ar
     9    14    13   ar
    10    25    24   ar
    11    25    26   ar
    12    15    16   ar
    13    31    32    3
    14     2     8    1
    15     2     1   ar
    16     2     3   ar
    17     6     5    1
    18     8    11    1
    19     8     9    1
    20     4    13    1
    21     4     5   ar
    22     4     3   ar
    23    13    17   ar
    24     5     1   ar
    25     1     7    1
    26     3    12    1
    27    16    17   ar
    28    16    24    1
    29    32    26    1
    30    17    18    1
    31    24    28   ar
    32    26    27   ar
    33    28    27   ar
    34    28    29    1
    35    27    35    1
    36    40    38    1
    37    44    42    1
    38    43    42    1
    39    35    38   ar
    40    35    33   ar
    41    38    39   ar
    42    42    33    1
    43    33    34   ar
    44    39    46    1
    45    39    36   ar
    46    46    45    3
    47    34    36   ar
    48    34    37    1
    49    36    41    1
