@<TRIPOS>MOLECULE
mol_data/noopt/geoms/mol2/13ia13ia-13ia13ia-.out
 46 49 0 0 0
SMALL
GASTEIGER

@<TRIPOS>ATOM
      1 C           1.1215   -0.3259    0.0002 C.ar    1  LIG1        0.0051
      2 C           0.7176    0.9721   -0.0005 C.ar    1  LIG1       -0.0325
      3 C          -0.7144    0.9744    0.0003 C.ar    1  LIG1       -0.0321
      4 C          -1.1226   -0.3223   -0.0003 C.ar    1  LIG1        0.0634
      5 N          -0.0018   -1.1217    0.0001 N.ar    1  LIG1       -0.3593
      6 H          -0.0034   -2.1157   -0.0003 H       1  LIG1        0.1654
      7 H           2.3167   -0.8373    0.0007 H       1  LIG1        0.0809
      8 C           1.4920    2.0167   -0.0003 C.3     1  LIG1       -0.0383
      9 H           1.0026    2.8234    0.5042 H       1  LIG1        0.0278
     10 H           1.7045    2.3034   -1.0091 H       1  LIG1        0.0278
     11 H           2.4062    1.7828    0.5041 H       1  LIG1        0.0278
     12 H          -1.4853    2.0212    0.0010 H       1  LIG1        0.0642
     13 C          -2.3194   -0.8299   -0.0001 C.ar    1  LIG1        0.0663
     14 C          -2.7274   -2.1266   -0.0005 C.ar    1  LIG1       -0.0231
     15 C          -4.1594   -2.1244    0.0011 C.ar    1  LIG1       -0.0314
     16 C          -4.5635   -0.8264    0.0006 C.ar    1  LIG1        0.0639
     17 N          -3.4402   -0.0305    0.0003 N.ar    1  LIG1       -0.3517
     18 H          -3.4386    0.9635   -0.0001 H       1  LIG1        0.1660
     19 C          -1.9564   -3.1736   -0.0006 C.3     1  LIG1       -0.0376
     20 H          -1.0413   -2.9428    0.5038 H       1  LIG1        0.0278
     21 H          -1.7448   -3.4607   -1.0095 H       1  LIG1        0.0278
     22 H          -2.4483   -3.9789    0.5037 H       1  LIG1        0.0278
     23 H          -4.9336   -3.1687    0.0023 H       1  LIG1        0.0642
     24 C          -5.7587   -0.3150    0.0014 C.ar    1  LIG1        0.0663
     25 C          -6.1626    0.9830    0.0016 C.ar    1  LIG1       -0.0231
     26 C          -7.5946    0.9853    0.0038 C.ar    1  LIG1       -0.0314
     27 C          -8.0028   -0.3114    0.0030 C.ar    1  LIG1        0.0639
     28 N          -6.8820   -1.1108    0.0021 N.ar    1  LIG1       -0.3517
     29 H          -6.8836   -2.1048    0.0013 H       1  LIG1        0.1660
     30 C          -5.3882    2.0276    0.0015 C.3     1  LIG1       -0.0376
     31 H          -5.8776    2.8344    0.5059 H       1  LIG1        0.0278
     32 H          -5.1759    2.3141   -1.0073 H       1  LIG1        0.0278
     33 H          -4.4739    1.7938    0.5059 H       1  LIG1        0.0278
     34 H          -8.3655    2.0321    0.0056 H       1  LIG1        0.0642
     35 C          -9.1996   -0.8190    0.0041 C.ar    1  LIG1        0.0658
     36 C          -9.6076   -2.1157    0.0044 C.ar    1  LIG1       -0.0238
     37 C         -11.0396   -2.1135    0.0069 C.ar    1  LIG1       -0.0409
     38 C         -11.4437   -0.8155    0.0063 C.ar    1  LIG1        0.0025
     39 N         -10.3204   -0.0196    0.0051 N.ar    1  LIG1       -0.3593
     40 H         -10.3188    0.9744    0.0043 H       1  LIG1        0.1654
     41 H         -12.6389   -0.3041    0.0077 H       1  LIG1        0.0807
     42 C          -8.8366   -3.1627    0.0040 C.3     1  LIG1       -0.0377
     43 H          -7.9215   -2.9320    0.5084 H       1  LIG1        0.0278
     44 H          -8.6251   -3.4497   -1.0049 H       1  LIG1        0.0278
     45 H          -9.3285   -3.9681    0.5083 H       1  LIG1        0.0278
     46 H         -11.8138   -3.1578    0.0089 H       1  LIG1        0.0635
@<TRIPOS>BOND
     1    21    19    1
     2    10     8    1
     3    32    30    1
     4    44    42    1
     5    19    14    1
     6    19    22    1
     7    19    20    1
     8     2     8    1
     9     2     1   ar
    10     2     3   ar
    11    14    13   ar
    12    14    15   ar
    13     6     5    1
    14     8    11    1
    15     8     9    1
    16     4    13    1
    17     4     5   ar
    18     4     3   ar
    19    18    17    1
    20    13    17   ar
    21     5     1   ar
    22     1     7    1
    23     3    12    1
    24    17    16   ar
    25    16    15   ar
    26    16    24    1
    27    15    23    1
    28    29    28    1
    29    24    25   ar
    30    24    28   ar
    31    30    25    1
    32    30    33    1
    33    30    31    1
    34    25    26   ar
    35    28    27   ar
    36    27    26   ar
    37    27    35    1
    38    26    34    1
    39    42    36    1
    40    42    45    1
    41    42    43    1
    42    35    36   ar
    43    35    39   ar
    44    40    39    1
    45    36    37   ar
    46    39    38   ar
    47    38    37   ar
    48    38    41    1
    49    37    46    1
