@<TRIPOS>MOLECULE
mol_data/noopt/geoms/mol2/13ia13ia.out
 24 25 0 0 0
SMALL
GASTEIGER

@<TRIPOS>ATOM
      1 C           1.1215   -0.3259    0.0002 C.ar    1  LIG1        0.0051
      2 C           0.7176    0.9721   -0.0005 C.ar    1  LIG1       -0.0325
      3 C          -0.7144    0.9744    0.0003 C.ar    1  LIG1       -0.0321
      4 C          -1.1226   -0.3223   -0.0003 C.ar    1  LIG1        0.0634
      5 N          -0.0018   -1.1217    0.0001 N.ar    1  LIG1       -0.3593
      6 H          -0.0034   -2.1157   -0.0003 H       1  LIG1        0.1654
      7 H           2.3167   -0.8373    0.0007 H       1  LIG1        0.0809
      8 C           1.4920    2.0167   -0.0003 C.3     1  LIG1       -0.0383
      9 H           1.0026    2.8234    0.5042 H       1  LIG1        0.0278
     10 H           1.7045    2.3034   -1.0091 H       1  LIG1        0.0278
     11 H           2.4062    1.7828    0.5041 H       1  LIG1        0.0278
     12 H          -1.4853    2.0212    0.0010 H       1  LIG1        0.0642
     13 C          -2.3194   -0.8299   -0.0001 C.ar    1  LIG1        0.0658
     14 C          -3.5353   -0.2219   -0.0003 C.ar    1  LIG1       -0.0238
     15 C          -4.5290   -1.2530    0.0012 C.ar    1  LIG1       -0.0409
     16 C          -3.8767   -2.4457    0.0005 C.ar    1  LIG1        0.0025
     17 N          -2.5238   -2.1913    0.0002 N.ar    1  LIG1       -0.3593
     18 H          -1.8081   -2.8811   -0.0004 H       1  LIG1        0.1654
     19 H          -4.3398   -3.6604    0.0012 H       1  LIG1        0.0807
     20 C          -3.7520    1.0602   -0.0003 C.3     1  LIG1       -0.0377
     21 H          -4.6729    1.2662    0.5041 H       1  LIG1        0.0278
     22 H          -3.8116    1.4119   -1.0091 H       1  LIG1        0.0278
     23 H          -2.9500    1.5575    0.5041 H       1  LIG1        0.0278
     24 H          -5.8179   -1.0837    0.0025 H       1  LIG1        0.0635
@<TRIPOS>BOND
     1    22    20    1
     2    10     8    1
     3     2     8    1
     4     2     1   ar
     5     2     3   ar
     6    18    17    1
     7    14    20    1
     8    14    13   ar
     9    14    15   ar
    10     4    13    1
    11     4     5   ar
    12     4     3   ar
    13     6     5    1
    14     8    11    1
    15     8     9    1
    16    20    23    1
    17    20    21    1
    18    13    17   ar
    19     5     1   ar
    20    17    16   ar
    21     1     7    1
    22     3    12    1
    23    16    15   ar
    24    16    19    1
    25    15    24    1
