@<TRIPOS>MOLECULE
mol_data/noopt/geoms/mol2/13ia12ei(180)6df(60)13el(260).out
 50 53 0 0 0
SMALL
GASTEIGER

@<TRIPOS>ATOM
      1 C           1.1215   -0.3259    0.0002 C.ar    1  LIG1        0.0052
      2 C           0.7176    0.9721   -0.0005 C.ar    1  LIG1       -0.0325
      3 C          -0.7144    0.9744    0.0003 C.ar    1  LIG1       -0.0305
      4 C          -1.1226   -0.3223   -0.0003 C.ar    1  LIG1        0.0836
      5 N          -0.0018   -1.1217    0.0001 N.ar    1  LIG1       -0.3580
      6 H          -0.0034   -2.1157   -0.0003 H       1  LIG1        0.1654
      7 H           2.3167   -0.8373    0.0007 H       1  LIG1        0.0809
      8 C           1.4920    2.0167   -0.0003 C.3     1  LIG1       -0.0383
      9 H           1.0026    2.8234    0.5042 H       1  LIG1        0.0278
     10 H           1.7045    2.3034   -1.0091 H       1  LIG1        0.0278
     11 H           2.4062    1.7828    0.5041 H       1  LIG1        0.0278
     12 H          -1.4853    2.0212    0.0010 H       1  LIG1        0.0642
     13 C          -2.3194   -0.8299   -0.0001 C.ar    1  LIG1        0.1673
     14 C          -2.8470   -2.1045    0.0001 C.ar    1  LIG1        0.0753
     15 C          -4.2875   -1.9572    0.0003 C.ar    1  LIG1        0.0115
     16 C          -4.5448   -0.6017    0.0003 C.ar    1  LIG1        0.1427
     17 O          -3.3472    0.1142    0.0002 O.2     1  LIG1       -0.4517
     18 C          -2.2013   -3.2329   -0.0000 C.1     1  LIG1       -0.0655
     19 C          -1.6048   -4.2755   -0.0001 C.1     1  LIG1       -0.1138
     20 H          -1.0734   -5.2042   -0.0002 H       1  LIG1        0.1232
     21 C          -5.1489   -2.9313    0.0004 C.3     1  LIG1       -0.0349
     22 H          -4.7307   -3.7772    0.5049 H       1  LIG1        0.0279
     23 H          -5.3852   -3.1987   -1.0084 H       1  LIG1        0.0279
     24 H          -6.0396   -2.6196    0.5049 H       1  LIG1        0.0279
     25 C          -6.5442    0.0435   -1.0506 C.ar    1  LIG1        0.1516
     26 C          -5.6137    0.1382    0.0004 C.ar    1  LIG1        0.0569
     27 C          -5.8664    1.0404    1.0354 C.ar    1  LIG1       -0.0046
     28 C          -7.0295    1.8107    0.9863 C.ar    1  LIG1        0.1449
     29 C          -7.8994    1.6445   -0.1070 C.ar    1  LIG1        0.1311
     30 N          -7.6712    0.7789   -1.1139 N.ar    1  LIG1       -0.2304
     31 H          -5.1618    1.1428    1.8728 H       1  LIG1        0.0663
     32 N          -6.1842   -1.5098   -2.9063 N.1     1  LIG1       -0.1893
     33 C          -6.3529   -0.7819   -2.0366 C.1     1  LIG1        0.1198
     34 O          -7.3100    2.6649    1.9253 O.3     1  LIG1       -0.5045
     35 H          -8.2389    2.5931    2.1567 H       1  LIG1        0.2922
     36 C          -8.9947    2.3388   -0.1975 C.ar    1  LIG1        0.0878
     37 C          -9.7826    2.6071   -1.2723 C.ar    1  LIG1        0.0931
     38 C         -10.8678    3.4216   -0.8144 C.ar    1  LIG1        0.1533
     39 C         -10.6962    3.6139    0.5204 C.ar    1  LIG1        0.0457
     40 N          -9.5504    2.9530    0.9021 N.ar    1  LIG1       -0.3553
     41 H          -9.1830    2.9235    1.8252 H       1  LIG1        0.1655
     42 H         -11.4143    4.2788    1.3760 H       1  LIG1        0.0845
     43 C          -9.5835    2.1989   -2.4904 C.1     1  LIG1       -0.0638
     44 C          -9.3996    1.8217   -3.6159 C.1     1  LIG1       -0.1137
     45 H          -9.2357    1.4857   -4.6185 H       1  LIG1        0.1232
     46 O         -11.8397    3.8920   -1.5384 O.3     1  LIG1       -0.4924
     47 C         -11.6093    5.2781   -1.8042 C.3     1  LIG1        0.0789
     48 H         -12.4094    5.6648   -2.4003 H       1  LIG1        0.0660
     49 H         -11.5611    5.8153   -0.8801 H       1  LIG1        0.0660
     50 H         -10.6850    5.3913   -2.3312 H       1  LIG1        0.0660
@<TRIPOS>BOND
     1    45    44    1
     2    44    43    3
     3    32    33    3
     4    43    37    1
     5    48    47    1
     6    50    47    1
     7    33    25    1
     8    47    46    1
     9    47    49    1
    10    46    38    1
    11    37    38   ar
    12    37    36   ar
    13    30    25   ar
    14    30    29   ar
    15    25    26   ar
    16    10     8    1
    17    23    21    1
    18    38    39   ar
    19    36    29    1
    20    36    40   ar
    21    29    28   ar
    22     2     8    1
    23     2     1   ar
    24     2     3   ar
    25     6     5    1
    26     4    13    1
    27     4     5   ar
    28     4     3   ar
    29     8    11    1
    30     8     9    1
    31    20    19    1
    32    19    18    3
    33    13    14   ar
    34    13    17   ar
    35    18    14    1
    36    14    15   ar
    37     5     1   ar
    38    17    16   ar
    39     1     7    1
    40    15    16   ar
    41    15    21    1
    42    16    26    1
    43     3    12    1
    44    26    27   ar
    45    21    24    1
    46    21    22    1
    47    39    40   ar
    48    39    42    1
    49    40    41    1
    50    28    27   ar
    51    28    34    1
    52    27    31    1
    53    34    35    1
