@<TRIPOS>MOLECULE
mol_data/noopt/geoms/mol2/13ia13ia-4ia13ia.out
 48 51 0 0 0
SMALL
GASTEIGER

@<TRIPOS>ATOM
      1 C           1.1215   -0.3259    0.0002 C.ar    1  LIG1        0.0051
      2 C           0.7176    0.9721   -0.0005 C.ar    1  LIG1       -0.0325
      3 C          -0.7144    0.9744    0.0003 C.ar    1  LIG1       -0.0321
      4 C          -1.1226   -0.3223   -0.0003 C.ar    1  LIG1        0.0634
      5 N          -0.0018   -1.1217    0.0001 N.ar    1  LIG1       -0.3593
      6 H          -0.0034   -2.1157   -0.0003 H       1  LIG1        0.1654
      7 H           2.3167   -0.8373    0.0007 H       1  LIG1        0.0809
      8 C           1.4920    2.0167   -0.0003 C.3     1  LIG1       -0.0383
      9 H           1.0026    2.8234    0.5042 H       1  LIG1        0.0278
     10 H           1.7045    2.3034   -1.0091 H       1  LIG1        0.0278
     11 H           2.4062    1.7828    0.5041 H       1  LIG1        0.0278
     12 H          -1.4853    2.0212    0.0010 H       1  LIG1        0.0642
     13 C          -2.3194   -0.8299   -0.0001 C.ar    1  LIG1        0.0663
     14 C          -2.7274   -2.1266   -0.0005 C.ar    1  LIG1       -0.0232
     15 C          -4.1594   -2.1244    0.0011 C.ar    1  LIG1       -0.0329
     16 C          -4.5635   -0.8264    0.0006 C.ar    1  LIG1        0.0475
     17 N          -3.4402   -0.0305    0.0003 N.ar    1  LIG1       -0.3528
     18 H          -3.4386    0.9635   -0.0001 H       1  LIG1        0.1660
     19 C          -1.9564   -3.1736   -0.0006 C.3     1  LIG1       -0.0376
     20 H          -1.0413   -2.9428    0.5038 H       1  LIG1        0.0278
     21 H          -1.7448   -3.4607   -1.0095 H       1  LIG1        0.0278
     22 H          -2.4483   -3.9789    0.5037 H       1  LIG1        0.0278
     23 H          -4.9336   -3.1687    0.0023 H       1  LIG1        0.0641
     24 C          -5.9236    1.0852    0.0026 C.ar    1  LIG1       -0.0407
     25 C          -7.2385    1.5895    0.0050 C.ar    1  LIG1       -0.0491
     26 C          -5.7587   -0.3150    0.0014 C.ar    1  LIG1        0.0013
     27 C          -8.3419    0.7391    0.0056 C.ar    1  LIG1       -0.0012
     28 H          -7.3885    2.6668    0.0062 H       1  LIG1        0.0627
     29 C          -6.8598   -1.1644    0.0020 C.ar    1  LIG1       -0.0518
     30 C          -8.1582   -0.6442    0.0040 C.ar    1  LIG1       -0.0520
     31 H          -6.7065   -2.2406    0.0011 H       1  LIG1        0.0624
     32 C          -4.9340    1.9287    0.0020 C.3     1  LIG1       -0.0391
     33 H          -5.2291    2.8252    0.5062 H       1  LIG1        0.0278
     34 H          -4.6630    2.1598   -1.0071 H       1  LIG1        0.0278
     35 H          -4.0956    1.4954    0.5061 H       1  LIG1        0.0278
     36 H          -9.1838   -1.4431    0.0046 H       1  LIG1        0.0624
     37 C          -9.5420    1.2389    0.0077 C.ar    1  LIG1        0.0494
     38 C          -9.9585    2.5329    0.0088 C.ar    1  LIG1       -0.0252
     39 C         -11.3904    2.5213    0.0122 C.ar    1  LIG1       -0.0409
     40 C         -11.7860    1.2207    0.0113 C.ar    1  LIG1        0.0024
     41 N         -10.6575    0.4322    0.0090 N.ar    1  LIG1       -0.3604
     42 H         -10.6495   -0.5617    0.0079 H       1  LIG1        0.1653
     43 H         -12.9778    0.7015    0.0134 H       1  LIG1        0.0807
     44 C          -9.1942    3.5849    0.0084 C.3     1  LIG1       -0.0377
     45 H          -9.6913    4.3871    0.5127 H       1  LIG1        0.0278
     46 H          -8.9848    3.8733   -1.0006 H       1  LIG1        0.0278
     47 H          -8.2777    3.3601    0.5126 H       1  LIG1        0.0278
     48 H         -12.1714    3.5606    0.0152 H       1  LIG1        0.0635
@<TRIPOS>BOND
     1    21    19    1
     2    10     8    1
     3    34    32    1
     4    46    44    1
     5    19    14    1
     6    19    22    1
     7    19    20    1
     8     2     8    1
     9     2     1   ar
    10     2     3   ar
    11    14    13   ar
    12    14    15   ar
    13     4    13    1
    14     4     5   ar
    15     4     3   ar
    16     6     5    1
    17     8    11    1
    18     8     9    1
    19    18    17    1
    20    13    17   ar
    21     5     1   ar
    22     1     7    1
    23     3    12    1
    24    17    16   ar
    25    16    15   ar
    26    16    26    1
    27    15    23    1
    28    31    29    1
    29    26    29   ar
    30    26    24   ar
    31    32    24    1
    32    32    35    1
    33    32    33    1
    34    29    30   ar
    35    24    25   ar
    36    30    36    1
    37    30    27   ar
    38    25    27   ar
    39    25    28    1
    40    27    37    1
    41    37    38   ar
    42    37    41   ar
    43    42    41    1
    44    44    38    1
    45    44    47    1
    46    44    45    1
    47    38    39   ar
    48    41    40   ar
    49    40    39   ar
    50    40    43    1
    51    39    48    1
