@<TRIPOS>MOLECULE
mol_data/noopt/geoms/mol2/13ia13hi(190)13lh(190)13hf(50).out
 51 54 0 0 0
SMALL
GASTEIGER

@<TRIPOS>ATOM
      1 C           1.1215   -0.3259    0.0002 C.ar    1  LIG1        0.0051
      2 C           0.7176    0.9721   -0.0005 C.ar    1  LIG1       -0.0325
      3 C          -0.7144    0.9744    0.0003 C.ar    1  LIG1       -0.0320
      4 C          -1.1226   -0.3223   -0.0003 C.ar    1  LIG1        0.0650
      5 N          -0.0018   -1.1217    0.0001 N.ar    1  LIG1       -0.3592
      6 H          -0.0034   -2.1157   -0.0003 H       1  LIG1        0.1654
      7 H           2.3167   -0.8373    0.0007 H       1  LIG1        0.0809
      8 C           1.4920    2.0167   -0.0003 C.3     1  LIG1       -0.0383
      9 H           1.0026    2.8234    0.5042 H       1  LIG1        0.0278
     10 H           1.7045    2.3034   -1.0091 H       1  LIG1        0.0278
     11 H           2.4062    1.7828    0.5041 H       1  LIG1        0.0278
     12 H          -1.4853    2.0212    0.0010 H       1  LIG1        0.0642
     13 C          -2.3194   -0.8299   -0.0001 C.ar    1  LIG1        0.0845
     14 C          -2.7326   -2.1144   -0.1651 C.ar    1  LIG1        0.0552
     15 C          -4.1619   -2.1186   -0.0764 C.ar    1  LIG1       -0.0023
     16 C          -4.5591   -0.8368    0.1406 C.ar    1  LIG1        0.0718
     17 N          -3.4343   -0.0444    0.1876 N.ar    1  LIG1       -0.3501
     18 H          -3.4281    0.9387    0.3344 H       1  LIG1        0.1661
     19 N          -1.9681   -3.1462   -0.3676 N.pl3   1  LIG1       -0.3561
     20 H          -2.4719   -3.8378   -0.8852 H       1  LIG1        0.1424
     21 H          -1.1598   -2.8657   -0.8852 H       1  LIG1        0.1424
     22 C          -4.9397   -3.1552   -0.1828 C.3     1  LIG1       -0.0359
     23 H          -4.4790   -3.9969    0.2907 H       1  LIG1        0.0279
     24 H          -5.1034   -3.3736   -1.2175 H       1  LIG1        0.0279
     25 H          -5.8766   -2.9482    0.2906 H       1  LIG1        0.0279
     26 C          -5.7496   -0.3364    0.2902 C.ar    1  LIG1        0.1078
     27 C          -6.9704   -0.9310    0.2277 C.ar    1  LIG1        0.1679
     28 C          -7.9528    0.0830    0.4672 C.ar    1  LIG1        0.0947
     29 C          -7.2890    1.2524    0.6673 C.ar    1  LIG1        0.0899
     30 N          -5.9399    1.0002    0.5594 N.ar    1  LIG1       -0.3474
     31 H          -5.2178    1.6758    0.6604 H       1  LIG1        0.1662
     32 O          -7.2000   -2.1887   -0.0081 O.3     1  LIG1       -0.4911
     33 C          -8.6104   -2.4084   -0.0947 C.3     1  LIG1        0.0790
     34 H          -8.7989   -3.4436   -0.2888 H       1  LIG1        0.0660
     35 H          -9.0723   -2.1289    0.8292 H       1  LIG1        0.0660
     36 H          -9.0154   -1.8170   -0.8891 H       1  LIG1        0.0660
     37 N          -9.2423   -0.0806    0.4902 N.pl3   1  LIG1       -0.3534
     38 H          -9.6839    0.6864    0.0248 H       1  LIG1        0.1425
     39 H          -9.4784   -0.9335    0.0248 H       1  LIG1        0.1425
     40 C          -7.7393    2.4456    0.9194 C.ar    1  LIG1        0.0894
     41 C          -7.3400    3.3627    1.8399 C.ar    1  LIG1        0.0937
     42 C          -8.1794    4.5130    1.6895 C.ar    1  LIG1        0.1554
     43 C          -9.0536    4.2490    0.6825 C.ar    1  LIG1        0.0461
     44 N          -8.7880    2.9841    0.2085 N.ar    1  LIG1       -0.3549
     45 H          -9.2755    2.5317   -0.5302 H       1  LIG1        0.1655
     46 H         -10.0045    4.9780    0.1781 H       1  LIG1        0.0845
     47 N          -6.3744    3.2178    2.6982 N.pl3   1  LIG1       -0.3535
     48 H          -5.9401    2.3270    2.5642 H       1  LIG1        0.1425
     49 H          -5.6978    3.9419    2.5642 H       1  LIG1        0.1425
     50 O          -8.1193    5.6096    2.3853 O.3     1  LIG1       -0.5035
     51 H          -9.0081    5.9293    2.5568 H       1  LIG1        0.2923
@<TRIPOS>BOND
     1    24    22    1
     2    10     8    1
     3    36    33    1
     4    21    19    1
     5    20    19    1
     6    45    44    1
     7    19    14    1
     8    34    33    1
     9    22    15    1
    10    22    25    1
    11    22    23    1
    12    14    15   ar
    13    14    13   ar
    14    33    32    1
    15    33    35    1
    16    15    16   ar
    17    32    27    1
    18     2     8    1
    19     2     1   ar
    20     2     3   ar
    21     8    11    1
    22     8     9    1
    23     6     5    1
    24     4    13    1
    25     4     5   ar
    26     4     3   ar
    27    13    17   ar
    28     5     1   ar
    29     1     7    1
    30     3    12    1
    31    39    37    1
    32    38    37    1
    33    16    17   ar
    34    16    26    1
    35    46    43    1
    36    17    18    1
    37    44    43   ar
    38    44    40   ar
    39    27    26   ar
    40    27    28   ar
    41    26    30   ar
    42    28    37    1
    43    28    29   ar
    44    30    31    1
    45    30    29   ar
    46    29    40    1
    47    43    42   ar
    48    40    41   ar
    49    42    41   ar
    50    42    50    1
    51    41    47    1
    52    50    51    1
    53    49    47    1
    54    48    47    1
