@<TRIPOS>MOLECULE
mol_data/noopt/geoms/mol2/13ia13ia13ia-13ia-.out
 46 49 0 0 0
SMALL
GASTEIGER

@<TRIPOS>ATOM
      1 C           1.1215   -0.3259    0.0002 C.ar    1  LIG1        0.0051
      2 C           0.7176    0.9721   -0.0005 C.ar    1  LIG1       -0.0325
      3 C          -0.7144    0.9744    0.0003 C.ar    1  LIG1       -0.0321
      4 C          -1.1226   -0.3223   -0.0003 C.ar    1  LIG1        0.0634
      5 N          -0.0018   -1.1217    0.0001 N.ar    1  LIG1       -0.3593
      6 H          -0.0034   -2.1157   -0.0003 H       1  LIG1        0.1654
      7 H           2.3167   -0.8373    0.0007 H       1  LIG1        0.0809
      8 C           1.4920    2.0167   -0.0003 C.3     1  LIG1       -0.0383
      9 H           1.0026    2.8234    0.5042 H       1  LIG1        0.0278
     10 H           1.7045    2.3034   -1.0091 H       1  LIG1        0.0278
     11 H           2.4062    1.7828    0.5041 H       1  LIG1        0.0278
     12 H          -1.4853    2.0212    0.0010 H       1  LIG1        0.0642
     13 C          -2.3194   -0.8299   -0.0001 C.ar    1  LIG1        0.0663
     14 C          -3.5353   -0.2219   -0.0003 C.ar    1  LIG1       -0.0231
     15 C          -4.5290   -1.2530    0.0012 C.ar    1  LIG1       -0.0314
     16 C          -3.8767   -2.4457    0.0005 C.ar    1  LIG1        0.0639
     17 N          -2.5238   -2.1913    0.0002 N.ar    1  LIG1       -0.3517
     18 H          -1.8081   -2.8811   -0.0004 H       1  LIG1        0.1660
     19 C          -3.7520    1.0602   -0.0003 C.3     1  LIG1       -0.0376
     20 H          -4.6729    1.2662    0.5041 H       1  LIG1        0.0278
     21 H          -3.8116    1.4119   -1.0091 H       1  LIG1        0.0278
     22 H          -2.9500    1.5575    0.5041 H       1  LIG1        0.0278
     23 H          -5.8179   -1.0837    0.0025 H       1  LIG1        0.0642
     24 C          -4.3398   -3.6604    0.0012 C.ar    1  LIG1        0.0663
     25 C          -3.6874   -4.8530    0.0012 C.ar    1  LIG1       -0.0231
     26 C          -4.6811   -5.8841    0.0032 C.ar    1  LIG1       -0.0314
     27 C          -5.8970   -5.2763    0.0027 C.ar    1  LIG1        0.0639
     28 N          -5.6927   -3.9149    0.0019 N.ar    1  LIG1       -0.3517
     29 H          -6.4084   -3.2251    0.0013 H       1  LIG1        0.1660
     30 C          -2.3981   -5.0223    0.0009 C.3     1  LIG1       -0.0376
     31 H          -1.9306   -4.2026    0.5053 H       1  LIG1        0.0278
     32 H          -2.0446   -5.0687   -1.0080 H       1  LIG1        0.0278
     33 H          -2.1582   -5.9351    0.5052 H       1  LIG1        0.0278
     34 H          -4.4643   -7.1660    0.0049 H       1  LIG1        0.0642
     35 C          -7.0939   -5.7839    0.0038 C.ar    1  LIG1        0.0658
     36 C          -7.5019   -7.0806    0.0041 C.ar    1  LIG1       -0.0238
     37 C          -8.9339   -7.0784    0.0067 C.ar    1  LIG1       -0.0409
     38 C          -9.3380   -5.7804    0.0061 C.ar    1  LIG1        0.0025
     39 N          -8.2146   -4.9846    0.0048 N.ar    1  LIG1       -0.3593
     40 H          -8.2131   -3.9906    0.0040 H       1  LIG1        0.1654
     41 H         -10.5331   -5.2690    0.0075 H       1  LIG1        0.0807
     42 C          -6.7308   -8.1276    0.0038 C.3     1  LIG1       -0.0377
     43 H          -5.8157   -7.8969    0.5081 H       1  LIG1        0.0278
     44 H          -6.5194   -8.4146   -1.0052 H       1  LIG1        0.0278
     45 H          -7.2227   -8.9330    0.5080 H       1  LIG1        0.0278
     46 H          -9.7081   -8.1227    0.0087 H       1  LIG1        0.0635
@<TRIPOS>BOND
     1    21    19    1
     2    10     8    1
     3    32    30    1
     4    44    42    1
     5     2     8    1
     6     2     1   ar
     7     2     3   ar
     8    18    17    1
     9    14    19    1
    10    14    13   ar
    11    14    15   ar
    12     4    13    1
    13     4     5   ar
    14     4     3   ar
    15     6     5    1
    16     8    11    1
    17     8     9    1
    18    19    22    1
    19    19    20    1
    20    13    17   ar
    21     5     1   ar
    22    17    16   ar
    23     1     7    1
    24     3    12    1
    25    16    15   ar
    26    16    24    1
    27    30    25    1
    28    30    33    1
    29    30    31    1
    30    25    24   ar
    31    25    26   ar
    32    15    23    1
    33    24    28   ar
    34    29    28    1
    35    28    27   ar
    36    27    26   ar
    37    27    35    1
    38    26    34    1
    39    42    36    1
    40    42    45    1
    41    42    43    1
    42    35    36   ar
    43    35    39   ar
    44    40    39    1
    45    36    37   ar
    46    39    38   ar
    47    38    37   ar
    48    38    41    1
    49    37    46    1
