@<TRIPOS>MOLECULE
mol_data/noopt/geoms/mol2/13ia13ia13ia.out
 35 37 0 0 0
SMALL
GASTEIGER

@<TRIPOS>ATOM
      1 C           1.1215   -0.3259    0.0002 C.ar    1  LIG1        0.0051
      2 C           0.7176    0.9721   -0.0005 C.ar    1  LIG1       -0.0325
      3 C          -0.7144    0.9744    0.0003 C.ar    1  LIG1       -0.0321
      4 C          -1.1226   -0.3223   -0.0003 C.ar    1  LIG1        0.0634
      5 N          -0.0018   -1.1217    0.0001 N.ar    1  LIG1       -0.3593
      6 H          -0.0034   -2.1157   -0.0003 H       1  LIG1        0.1654
      7 H           2.3167   -0.8373    0.0007 H       1  LIG1        0.0809
      8 C           1.4920    2.0167   -0.0003 C.3     1  LIG1       -0.0383
      9 H           1.0026    2.8234    0.5042 H       1  LIG1        0.0278
     10 H           1.7045    2.3034   -1.0091 H       1  LIG1        0.0278
     11 H           2.4062    1.7828    0.5041 H       1  LIG1        0.0278
     12 H          -1.4853    2.0212    0.0010 H       1  LIG1        0.0642
     13 C          -2.3194   -0.8299   -0.0001 C.ar    1  LIG1        0.0663
     14 C          -3.5353   -0.2219   -0.0003 C.ar    1  LIG1       -0.0231
     15 C          -4.5290   -1.2530    0.0012 C.ar    1  LIG1       -0.0314
     16 C          -3.8767   -2.4457    0.0005 C.ar    1  LIG1        0.0639
     17 N          -2.5238   -2.1913    0.0002 N.ar    1  LIG1       -0.3517
     18 H          -1.8081   -2.8811   -0.0004 H       1  LIG1        0.1660
     19 C          -3.7520    1.0602   -0.0003 C.3     1  LIG1       -0.0376
     20 H          -4.6729    1.2662    0.5041 H       1  LIG1        0.0278
     21 H          -3.8116    1.4119   -1.0091 H       1  LIG1        0.0278
     22 H          -2.9500    1.5575    0.5041 H       1  LIG1        0.0278
     23 H          -5.8179   -1.0837    0.0025 H       1  LIG1        0.0642
     24 C          -4.3398   -3.6604    0.0012 C.ar    1  LIG1        0.0658
     25 C          -5.6206   -4.1160    0.0013 C.ar    1  LIG1       -0.0238
     26 C          -5.5655   -5.5470    0.0033 C.ar    1  LIG1       -0.0409
     27 C          -4.2535   -5.9029    0.0026 C.ar    1  LIG1        0.0025
     28 N          -3.4996   -4.7510    0.0018 N.ar    1  LIG1       -0.3593
     29 H          -2.5064   -4.7127    0.0010 H       1  LIG1        0.1654
     30 H          -3.6983   -7.0784    0.0036 H       1  LIG1        0.0807
     31 C          -6.6953   -3.3841    0.0012 C.3     1  LIG1       -0.0377
     32 H          -7.4819   -3.9054    0.5056 H       1  LIG1        0.0278
     33 H          -6.9901   -3.1834   -1.0076 H       1  LIG1        0.0278
     34 H          -6.4984   -2.4612    0.5056 H       1  LIG1        0.0278
     35 H          -6.5805   -6.3592    0.0050 H       1  LIG1        0.0635
@<TRIPOS>BOND
     1    21    19    1
     2    10     8    1
     3    33    31    1
     4     2     8    1
     5     2     1   ar
     6     2     3   ar
     7    18    17    1
     8    14    19    1
     9    14    13   ar
    10    14    15   ar
    11     4    13    1
    12     4     5   ar
    13     4     3   ar
    14     6     5    1
    15     8    11    1
    16     8     9    1
    17    19    22    1
    18    19    20    1
    19    13    17   ar
    20     5     1   ar
    21    17    16   ar
    22     1     7    1
    23     3    12    1
    24    16    15   ar
    25    16    24    1
    26    29    28    1
    27    15    23    1
    28    24    25   ar
    29    24    28   ar
    30    31    25    1
    31    31    34    1
    32    31    32    1
    33    25    26   ar
    34    28    27   ar
    35    27    26   ar
    36    27    30    1
    37    26    35    1
