@<TRIPOS>MOLECULE
mol_data/noopt/geoms/mol2/13id13id-13id-13id-.out
 50 53 0 0 0
SMALL
GASTEIGER

@<TRIPOS>ATOM
      1 C           1.1215   -0.3259    0.0002 C.ar    1  LIG1        0.0064
      2 C           0.7176    0.9721   -0.0005 C.ar    1  LIG1       -0.0151
      3 C          -0.7144    0.9744    0.0003 C.ar    1  LIG1        0.0813
      4 C          -1.1226   -0.3223   -0.0003 C.ar    1  LIG1        0.0810
      5 N          -0.0018   -1.1217    0.0001 N.ar    1  LIG1       -0.3582
      6 H          -0.0034   -2.1157   -0.0003 H       1  LIG1        0.1654
      7 H           2.3167   -0.8373    0.0007 H       1  LIG1        0.0810
      8 C           1.4920    2.0167   -0.0003 C.3     1  LIG1       -0.0371
      9 H           1.0026    2.8234    0.5042 H       1  LIG1        0.0278
     10 H           1.7045    2.3034   -1.0091 H       1  LIG1        0.0278
     11 H           2.4062    1.7828    0.5041 H       1  LIG1        0.0278
     12 N          -2.1652    2.9444    0.0016 N.1     1  LIG1       -0.1908
     13 C          -1.4853    2.0212    0.0010 C.1     1  LIG1        0.1016
     14 C          -2.3194   -0.8299   -0.0001 C.ar    1  LIG1        0.0688
     15 C          -2.7274   -2.1266   -0.0005 C.ar    1  LIG1       -0.0057
     16 C          -4.1594   -2.1244    0.0011 C.ar    1  LIG1        0.0819
     17 C          -4.5635   -0.8264    0.0006 C.ar    1  LIG1        0.0815
     18 N          -3.4402   -0.0305    0.0003 N.ar    1  LIG1       -0.3506
     19 H          -3.4386    0.9635   -0.0001 H       1  LIG1        0.1660
     20 C          -1.9564   -3.1736   -0.0006 C.3     1  LIG1       -0.0364
     21 H          -1.0413   -2.9428    0.5038 H       1  LIG1        0.0279
     22 H          -1.7448   -3.4607   -1.0095 H       1  LIG1        0.0279
     23 H          -2.4483   -3.9789    0.5037 H       1  LIG1        0.0279
     24 N          -5.6165   -4.0898    0.0034 N.1     1  LIG1       -0.1908
     25 C          -4.9336   -3.1687    0.0023 C.1     1  LIG1        0.1016
     26 C          -5.7587   -0.3150    0.0014 C.ar    1  LIG1        0.0688
     27 C          -6.9765   -0.9191    0.0015 C.ar    1  LIG1       -0.0057
     28 C          -7.9670    0.1151    0.0037 C.ar    1  LIG1        0.0819
     29 C          -7.3109    1.3057    0.0031 C.ar    1  LIG1        0.0815
     30 N          -5.9587    1.0470    0.0022 N.ar    1  LIG1       -0.3506
     31 H          -5.2408    1.7345    0.0016 H       1  LIG1        0.1660
     32 C          -7.1973   -2.2005    0.0012 C.3     1  LIG1       -0.0364
     33 H          -6.3970   -2.7005    0.5056 H       1  LIG1        0.0279
     34 H          -7.2578   -2.5518   -1.0077 H       1  LIG1        0.0279
     35 H          -8.1189   -2.4037    0.5055 H       1  LIG1        0.0279
     36 N         -10.3937   -0.1958    0.0070 N.1     1  LIG1       -0.1908
     37 C          -9.2564   -0.0501    0.0054 C.1     1  LIG1        0.1016
     38 C          -7.7701    2.5219    0.0044 C.ar    1  LIG1        0.0684
     39 C          -9.0494    2.9816    0.0047 C.ar    1  LIG1       -0.0064
     40 C          -8.9898    4.4124    0.0074 C.ar    1  LIG1        0.0725
     41 C          -7.6767    4.7641    0.0068 C.ar    1  LIG1        0.0199
     42 N          -6.9265    3.6098    0.0054 N.ar    1  LIG1       -0.3581
     43 H          -5.9333    3.5684    0.0046 H       1  LIG1        0.1654
     44 H          -7.1178    5.9378    0.0083 H       1  LIG1        0.0820
     45 C         -10.1265    2.2531    0.0043 C.3     1  LIG1       -0.0364
     46 H          -9.9326    1.3295    0.5087 H       1  LIG1        0.0279
     47 H         -10.4217    2.0534   -1.0046 H       1  LIG1        0.0279
     48 H         -10.9115    2.7769    0.5086 H       1  LIG1        0.0279
     49 N         -10.8953    5.9470    0.0113 N.1     1  LIG1       -0.1908
     50 C         -10.0023    5.2278    0.0095 C.1     1  LIG1        0.1009
@<TRIPOS>BOND
     1    22    20    1
     2    10     8    1
     3    34    32    1
     4    47    45    1
     5    20    15    1
     6    20    23    1
     7    20    21    1
     8     2     8    1
     9     2     1   ar
    10     2     3   ar
    11    15    14   ar
    12    15    16   ar
    13     4    14    1
    14     4     5   ar
    15     4     3   ar
    16     6     5    1
    17     8    11    1
    18     8     9    1
    19    19    18    1
    20    14    18   ar
    21     5     1   ar
    22     1     7    1
    23     3    13    1
    24    18    17   ar
    25    17    16   ar
    26    17    26    1
    27    13    12    3
    28    16    25    1
    29    32    27    1
    30    32    35    1
    31    32    33    1
    32    26    27   ar
    33    26    30   ar
    34    27    28   ar
    35    31    30    1
    36    30    29   ar
    37    25    24    3
    38    29    28   ar
    39    29    38    1
    40    28    37    1
    41    45    39    1
    42    45    48    1
    43    45    46    1
    44    38    39   ar
    45    38    42   ar
    46    43    42    1
    47    39    40   ar
    48    42    41   ar
    49    37    36    3
    50    41    40   ar
    51    41    44    1
    52    40    50    1
    53    50    49    3
