@<TRIPOS>MOLECULE
mol_data/noopt/geoms/mol2/13id13ad(20)6da(240)12ia(300).out
 43 46 0 0 0
SMALL
GASTEIGER

@<TRIPOS>ATOM
      1 C           1.1215   -0.3259    0.0002 C.ar    1  LIG1        0.0064
      2 C           0.7176    0.9721   -0.0005 C.ar    1  LIG1       -0.0151
      3 C          -0.7144    0.9744    0.0003 C.ar    1  LIG1        0.0813
      4 C          -1.1226   -0.3223   -0.0003 C.ar    1  LIG1        0.0807
      5 N          -0.0018   -1.1217    0.0001 N.ar    1  LIG1       -0.3582
      6 H          -0.0034   -2.1157   -0.0003 H       1  LIG1        0.1654
      7 H           2.3167   -0.8373    0.0007 H       1  LIG1        0.0810
      8 C           1.4920    2.0167   -0.0003 C.3     1  LIG1       -0.0371
      9 H           1.0026    2.8234    0.5042 H       1  LIG1        0.0278
     10 H           1.7045    2.3034   -1.0091 H       1  LIG1        0.0278
     11 H           2.4062    1.7828    0.5041 H       1  LIG1        0.0278
     12 N          -2.1652    2.9444    0.0016 N.1     1  LIG1       -0.1908
     13 C          -1.4853    2.0212    0.0010 C.1     1  LIG1        0.1016
     14 C          -2.3194   -0.8299   -0.0001 C.ar    1  LIG1        0.0658
     15 C          -3.5144   -0.2711    0.3281 C.ar    1  LIG1       -0.0169
     16 C          -4.5193   -1.2758    0.1514 C.ar    1  LIG1        0.0777
     17 C          -3.8945   -2.4039   -0.2787 C.ar    1  LIG1        0.0673
     18 N          -2.5475   -2.1355   -0.3724 N.ar    1  LIG1       -0.3519
     19 H          -1.8504   -2.7815   -0.6634 H       1  LIG1        0.1660
     20 H          -3.7055    0.9505    0.7297 H       1  LIG1        0.0652
     21 N          -6.9197   -1.0169    0.5476 N.1     1  LIG1       -0.1908
     22 C          -5.7947   -1.1382    0.3619 C.1     1  LIG1        0.1013
     23 C          -5.2934   -4.2049    0.2850 C.ar    1  LIG1        0.1499
     24 C          -4.3765   -3.5742   -0.5758 C.ar    1  LIG1        0.0354
     25 C          -4.0010   -4.2326   -1.7482 C.ar    1  LIG1       -0.0477
     26 C          -4.5489   -5.4877   -2.0189 C.ar    1  LIG1       -0.0320
     27 C          -5.4583   -6.0366   -1.0963 C.ar    1  LIG1        0.1077
     28 N          -5.8316   -5.4152    0.0394 N.ar    1  LIG1       -0.2326
     29 H          -3.2863   -3.7715   -2.4444 H       1  LIG1        0.0626
     30 N          -6.0087   -3.1262    2.3611 N.1     1  LIG1       -0.1893
     31 C          -5.6734   -3.6317    1.3881 C.1     1  LIG1        0.1198
     32 H          -4.2312   -6.1413   -3.0968 H       1  LIG1        0.0640
     33 C          -5.9952   -7.2022   -1.3041 C.ar    1  LIG1        0.1558
     34 C          -6.8309   -7.7438   -2.2588 C.ar    1  LIG1       -0.0032
     35 C          -7.0449   -9.1266   -1.8863 C.ar    1  LIG1       -0.0203
     36 C          -6.3254   -9.3385   -0.7282 C.ar    1  LIG1        0.0929
     37 O          -5.6695   -8.1666   -0.3495 O.2     1  LIG1       -0.4611
     38 H          -6.1248  -10.3478    0.0661 H       1  LIG1        0.1029
     39 C          -7.3406   -7.1520   -3.2983 C.3     1  LIG1       -0.0361
     40 H          -8.4056   -7.2542   -3.2805 H       1  LIG1        0.0279
     41 H          -6.9541   -7.6007   -4.1895 H       1  LIG1        0.0279
     42 H          -7.0816   -6.1139   -3.2805 H       1  LIG1        0.0279
     43 H          -7.7782   -9.9814   -2.5356 H       1  LIG1        0.0652
@<TRIPOS>BOND
     1    41    39    1
     2    39    42    1
     3    39    40    1
     4    39    34    1
     5    32    26    1
     6    43    35    1
     7    29    25    1
     8    34    35   ar
     9    34    33   ar
    10    26    25   ar
    11    26    27   ar
    12    35    36   ar
    13    25    24   ar
    14    33    27    1
    15    33    37   ar
    16    27    28   ar
    17    10     8    1
    18    36    37   ar
    19    36    38    1
    20    19    18    1
    21    24    17    1
    22    24    23   ar
    23    18    17   ar
    24    18    14   ar
    25    17    16   ar
    26     2     8    1
    27     2     1   ar
    28     2     3   ar
    29     8    11    1
    30     8     9    1
    31     6     5    1
    32     4    14    1
    33     4     5   ar
    34     4     3   ar
    35    14    15   ar
    36     5     1   ar
    37     1     7    1
    38     3    13    1
    39    13    12    3
    40    28    23   ar
    41    16    15   ar
    42    16    22    1
    43    23    31    1
    44    15    20    1
    45    22    21    3
    46    31    30    3
