@<TRIPOS>MOLECULE
mol_data/noopt/geoms/mol2/13id12ef6fe-12hh-.out
 47 49 0 0 0
SMALL
GASTEIGER

@<TRIPOS>ATOM
      1 C           1.1215   -0.3259    0.0002 C.ar    1  LIG1        0.0063
      2 C           0.7176    0.9721   -0.0005 C.ar    1  LIG1       -0.0152
      3 C          -0.7144    0.9744    0.0003 C.ar    1  LIG1        0.0799
      4 C          -1.1226   -0.3223   -0.0003 C.ar    1  LIG1        0.0663
      5 N          -0.0018   -1.1217    0.0001 N.ar    1  LIG1       -0.3593
      6 H          -0.0034   -2.1157   -0.0003 H       1  LIG1        0.1654
      7 H           2.3167   -0.8373    0.0007 H       1  LIG1        0.0810
      8 C           1.4920    2.0167   -0.0003 C.3     1  LIG1       -0.0371
      9 H           1.0026    2.8234    0.5042 H       1  LIG1        0.0278
     10 H           1.7045    2.3034   -1.0091 H       1  LIG1        0.0278
     11 H           2.4062    1.7828    0.5041 H       1  LIG1        0.0278
     12 N          -2.1652    2.9444    0.0016 N.1     1  LIG1       -0.1908
     13 C          -1.4853    2.0212    0.0010 C.1     1  LIG1        0.1015
     14 C          -2.3194   -0.8299   -0.0001 C.2     1  LIG1        0.0290
     15 C          -3.6024   -0.3233    0.0148 C.2     1  LIG1        0.0797
     16 C          -4.4979   -1.4613    0.0044 C.2     1  LIG1        0.1807
     17 C          -3.7022   -2.5883   -0.0164 C.2     1  LIG1        0.2335
     18 O          -2.3551   -2.2249   -0.0196 O.2     1  LIG1       -0.2832
     19 C          -3.9648    0.9250    0.0347 C.1     1  LIG1       -0.0652
     20 C          -4.2997    2.0784    0.0530 C.1     1  LIG1       -0.1138
     21 H          -4.5979    3.1059    0.0693 H       1  LIG1        0.1232
     22 O          -5.7966   -1.4036    0.0131 O.2     1  LIG1       -0.5023
     23 H          -6.1568   -2.2934    0.0153 H       1  LIG1        0.2923
     24 C          -2.8310   -4.7694   -0.0632 C.ar    1  LIG1        0.2242
     25 C          -3.9133   -3.8710   -0.0331 C.ar    1  LIG1        0.0878
     26 C          -5.2096   -4.3889   -0.0213 C.ar    1  LIG1       -0.0281
     27 C          -5.3799   -5.7743   -0.0401 C.ar    1  LIG1        0.0546
     28 C          -4.2349   -6.5913   -0.0702 C.ar    1  LIG1        0.1270
     29 N          -2.9771   -6.1085   -0.0816 N.ar    1  LIG1       -0.2080
     30 H          -6.0800   -3.7179    0.0011 H       1  LIG1        0.0639
     31 O          -1.6057   -4.3353   -0.0751 O.3     1  LIG1       -0.4919
     32 H          -1.6059   -3.3753   -0.0780 H       1  LIG1        0.2938
     33 C          -6.5663   -6.3058   -0.0304 C.1     1  LIG1       -0.0674
     34 C          -7.6625   -6.7968   -0.0215 C.1     1  LIG1       -0.1138
     35 H          -8.6390   -7.2343   -0.0135 H       1  LIG1        0.1232
     36 C          -4.3419   -7.8867   -0.0884 C.ar    1  LIG1        0.1766
     37 C          -5.3870   -8.7872   -0.0874 C.ar    1  LIG1        0.0935
     38 C          -4.7958  -10.1088   -0.1159 C.ar    1  LIG1        0.0845
     39 C          -3.4281   -9.9281   -0.1325 C.ar    1  LIG1        0.1151
     40 O          -3.1235   -8.5666   -0.1161 O.2     1  LIG1       -0.4576
     41 H          -2.3906  -10.7111   -0.1591 H       1  LIG1        0.1049
     42 N          -6.6607   -8.5279   -0.0654 N.pl3   1  LIG1       -0.3536
     43 H          -6.8322   -7.6597   -0.5311 H       1  LIG1        0.1425
     44 H          -7.1580   -9.2599   -0.5312 H       1  LIG1        0.1425
     45 N          -5.4508  -11.2318   -0.1238 N.pl3   1  LIG1       -0.3541
     46 H          -6.3225  -11.1058   -0.5973 H       1  LIG1        0.1425
     47 H          -4.9120  -11.9285   -0.5973 H       1  LIG1        0.1425
@<TRIPOS>BOND
     1    10     8    1
     2    47    45    1
     3    46    45    1
     4    44    42    1
     5    43    42    1
     6    41    39    1
     7    39    40   ar
     8    39    38   ar
     9    45    38    1
    10    40    36   ar
    11    38    37   ar
    12    36    37   ar
    13    36    28    1
    14    37    42    1
    15    29    28   ar
    16    29    24   ar
    17    32    31    1
    18    31    24    1
    19    28    27   ar
    20    24    25   ar
    21    27    33    1
    22    27    26   ar
    23    25    26   ar
    24    25    17    1
    25    33    34    3
    26    34    35    1
    27    26    30    1
    28    18    17    1
    29    17    16    2
    30     2     8    1
    31     2     1   ar
    32     2     3   ar
    33     4    14    1
    34     4     5   ar
    35     4     3   ar
    36     6     5    1
    37     8    11    1
    38     8     9    1
    39    14    15    2
    40     5     1   ar
    41     1     7    1
    42     3    13    1
    43    13    12    3
    44    16    22    1
    45    16    15    1
    46    22    23    1
    47    15    19    1
    48    19    20    3
    49    20    21    1
