@<TRIPOS>MOLECULE
mol_data/noopt/geoms/mol2/13id13id-4id13id.out
 52 55 0 0 0
SMALL
GASTEIGER

@<TRIPOS>ATOM
      1 C           1.1215   -0.3259    0.0002 C.ar    1  LIG1        0.0064
      2 C           0.7176    0.9721   -0.0005 C.ar    1  LIG1       -0.0151
      3 C          -0.7144    0.9744    0.0003 C.ar    1  LIG1        0.0813
      4 C          -1.1226   -0.3223   -0.0003 C.ar    1  LIG1        0.0810
      5 N          -0.0018   -1.1217    0.0001 N.ar    1  LIG1       -0.3582
      6 H          -0.0034   -2.1157   -0.0003 H       1  LIG1        0.1654
      7 H           2.3167   -0.8373    0.0007 H       1  LIG1        0.0810
      8 C           1.4920    2.0167   -0.0003 C.3     1  LIG1       -0.0371
      9 H           1.0026    2.8234    0.5042 H       1  LIG1        0.0278
     10 H           1.7045    2.3034   -1.0091 H       1  LIG1        0.0278
     11 H           2.4062    1.7828    0.5041 H       1  LIG1        0.0278
     12 N          -2.1652    2.9444    0.0016 N.1     1  LIG1       -0.1908
     13 C          -1.4853    2.0212    0.0010 C.1     1  LIG1        0.1016
     14 C          -2.3194   -0.8299   -0.0001 C.ar    1  LIG1        0.0688
     15 C          -2.7274   -2.1266   -0.0005 C.ar    1  LIG1       -0.0057
     16 C          -4.1594   -2.1244    0.0011 C.ar    1  LIG1        0.0805
     17 C          -4.5635   -0.8264    0.0006 C.ar    1  LIG1        0.0651
     18 N          -3.4402   -0.0305    0.0003 N.ar    1  LIG1       -0.3517
     19 H          -3.4386    0.9635   -0.0001 H       1  LIG1        0.1660
     20 C          -1.9564   -3.1736   -0.0006 C.3     1  LIG1       -0.0364
     21 H          -1.0413   -2.9428    0.5038 H       1  LIG1        0.0279
     22 H          -1.7448   -3.4607   -1.0095 H       1  LIG1        0.0279
     23 H          -2.4483   -3.9789    0.5037 H       1  LIG1        0.0279
     24 N          -5.6165   -4.0898    0.0034 N.1     1  LIG1       -0.1908
     25 C          -4.9336   -3.1687    0.0023 C.1     1  LIG1        0.1016
     26 C          -5.9236    1.0852    0.0026 C.ar    1  LIG1       -0.0406
     27 C          -7.2385    1.5895    0.0050 C.ar    1  LIG1       -0.0478
     28 C          -5.7587   -0.3150    0.0014 C.ar    1  LIG1        0.0037
     29 C          -8.3419    0.7391    0.0056 C.ar    1  LIG1        0.0162
     30 H          -7.3885    2.6668    0.0062 H       1  LIG1        0.0627
     31 C          -6.8598   -1.1644    0.0020 C.ar    1  LIG1       -0.0343
     32 C          -8.1582   -0.6442    0.0040 C.ar    1  LIG1        0.0615
     33 H          -6.7065   -2.2406    0.0011 H       1  LIG1        0.0637
     34 C          -4.9340    1.9287    0.0020 C.3     1  LIG1       -0.0391
     35 H          -5.2291    2.8252    0.5062 H       1  LIG1        0.0278
     36 H          -4.6630    2.1598   -1.0071 H       1  LIG1        0.0278
     37 H          -4.0956    1.4954    0.5061 H       1  LIG1        0.0278
     38 N         -10.0883   -2.1477    0.0052 N.1     1  LIG1       -0.1908
     39 C          -9.1838   -1.4431    0.0046 C.1     1  LIG1        0.0998
     40 C          -9.5420    1.2389    0.0077 C.ar    1  LIG1        0.0519
     41 C          -9.9585    2.5329    0.0088 C.ar    1  LIG1       -0.0078
     42 C         -11.3904    2.5213    0.0122 C.ar    1  LIG1        0.0725
     43 C         -11.7860    1.2207    0.0113 C.ar    1  LIG1        0.0199
     44 N         -10.6575    0.4322    0.0090 N.ar    1  LIG1       -0.3592
     45 H         -10.6495   -0.5617    0.0079 H       1  LIG1        0.1654
     46 H         -12.9778    0.7015    0.0134 H       1  LIG1        0.0820
     47 C          -9.1942    3.5849    0.0084 C.3     1  LIG1       -0.0365
     48 H          -9.6913    4.3871    0.5127 H       1  LIG1        0.0279
     49 H          -8.9848    3.8733   -1.0006 H       1  LIG1        0.0279
     50 H          -8.2777    3.3601    0.5126 H       1  LIG1        0.0279
     51 N         -12.8602    4.4772    0.0178 N.1     1  LIG1       -0.1908
     52 C         -12.1714    3.5606    0.0152 C.1     1  LIG1        0.1009
@<TRIPOS>BOND
     1    22    20    1
     2    10     8    1
     3    36    34    1
     4    49    47    1
     5    20    15    1
     6    20    23    1
     7    20    21    1
     8     2     8    1
     9     2     1   ar
    10     2     3   ar
    11    15    14   ar
    12    15    16   ar
    13     4    14    1
    14     4     5   ar
    15     4     3   ar
    16     6     5    1
    17     8    11    1
    18     8     9    1
    19    19    18    1
    20    14    18   ar
    21     5     1   ar
    22     1     7    1
    23     3    13    1
    24    18    17   ar
    25    17    16   ar
    26    17    28    1
    27    13    12    3
    28    16    25    1
    29    33    31    1
    30    28    31   ar
    31    28    26   ar
    32    34    26    1
    33    34    37    1
    34    34    35    1
    35    31    32   ar
    36    25    24    3
    37    26    27   ar
    38    32    39    1
    39    32    29   ar
    40    39    38    3
    41    27    29   ar
    42    27    30    1
    43    29    40    1
    44    40    41   ar
    45    40    44   ar
    46    45    44    1
    47    47    41    1
    48    47    50    1
    49    47    48    1
    50    41    42   ar
    51    44    43   ar
    52    43    42   ar
    53    43    46    1
    54    42    52    1
    55    52    51    3
