@<TRIPOS>MOLECULE
mol_data/noopt/geoms/mol2/13ie13ie-13ie13ie-.out
 54 57 0 0 0
SMALL
GASTEIGER

@<TRIPOS>ATOM
      1 C           1.1215   -0.3259    0.0002 C.ar    1  LIG1        0.0063
      2 C           0.7176    0.9721   -0.0005 C.ar    1  LIG1       -0.0171
      3 C          -0.7144    0.9744    0.0003 C.ar    1  LIG1        0.0542
      4 C          -1.1226   -0.3223   -0.0003 C.ar    1  LIG1        0.0790
      5 N          -0.0018   -1.1217    0.0001 N.ar    1  LIG1       -0.3583
      6 H          -0.0034   -2.1157   -0.0003 H       1  LIG1        0.1654
      7 H           2.3167   -0.8373    0.0007 H       1  LIG1        0.0810
      8 C           1.4920    2.0167   -0.0003 C.3     1  LIG1       -0.0371
      9 H           1.0026    2.8234    0.5042 H       1  LIG1        0.0278
     10 H           1.7045    2.3034   -1.0091 H       1  LIG1        0.0278
     11 H           2.4062    1.7828    0.5041 H       1  LIG1        0.0278
     12 C          -1.4853    2.0212    0.0010 C.1     1  LIG1       -0.0672
     13 C          -2.1976    2.9884    0.0016 C.1     1  LIG1       -0.1138
     14 H          -2.8321    3.8500    0.0022 H       1  LIG1        0.1232
     15 C          -2.3194   -0.8299   -0.0001 C.ar    1  LIG1        0.0687
     16 C          -2.7274   -2.1266   -0.0005 C.ar    1  LIG1       -0.0077
     17 C          -4.1594   -2.1244    0.0011 C.ar    1  LIG1        0.0549
     18 C          -4.5635   -0.8264    0.0006 C.ar    1  LIG1        0.0795
     19 N          -3.4402   -0.0305    0.0003 N.ar    1  LIG1       -0.3506
     20 H          -3.4386    0.9635   -0.0001 H       1  LIG1        0.1660
     21 C          -1.9564   -3.1736   -0.0006 C.3     1  LIG1       -0.0365
     22 H          -1.0413   -2.9428    0.5038 H       1  LIG1        0.0279
     23 H          -1.7448   -3.4607   -1.0095 H       1  LIG1        0.0279
     24 H          -2.4483   -3.9789    0.5037 H       1  LIG1        0.0279
     25 C          -4.9336   -3.1687    0.0023 C.1     1  LIG1       -0.0672
     26 C          -5.6490   -4.1337    0.0035 C.1     1  LIG1       -0.1138
     27 H          -6.2862   -4.9932    0.0045 H       1  LIG1        0.1232
     28 C          -5.7587   -0.3150    0.0014 C.ar    1  LIG1        0.0687
     29 C          -6.1626    0.9830    0.0016 C.ar    1  LIG1       -0.0077
     30 C          -7.5946    0.9853    0.0038 C.ar    1  LIG1        0.0549
     31 C          -8.0028   -0.3114    0.0030 C.ar    1  LIG1        0.0795
     32 N          -6.8820   -1.1108    0.0021 N.ar    1  LIG1       -0.3506
     33 H          -6.8836   -2.1048    0.0013 H       1  LIG1        0.1660
     34 C          -5.3882    2.0276    0.0015 C.3     1  LIG1       -0.0365
     35 H          -5.8776    2.8344    0.5059 H       1  LIG1        0.0279
     36 H          -5.1759    2.3141   -1.0073 H       1  LIG1        0.0279
     37 H          -4.4739    1.7938    0.5059 H       1  LIG1        0.0279
     38 C          -8.3655    2.0321    0.0056 C.1     1  LIG1       -0.0672
     39 C          -9.0778    2.9993    0.0073 C.1     1  LIG1       -0.1138
     40 H          -9.7123    3.8609    0.0088 H       1  LIG1        0.1232
     41 C          -9.1996   -0.8190    0.0041 C.ar    1  LIG1        0.0682
     42 C          -9.6076   -2.1157    0.0044 C.ar    1  LIG1       -0.0084
     43 C         -11.0396   -2.1135    0.0069 C.ar    1  LIG1        0.0455
     44 C         -11.4437   -0.8155    0.0063 C.ar    1  LIG1        0.0179
     45 N         -10.3204   -0.0196    0.0051 N.ar    1  LIG1       -0.3581
     46 H         -10.3188    0.9744    0.0043 H       1  LIG1        0.1654
     47 H         -12.6389   -0.3041    0.0077 H       1  LIG1        0.0819
     48 C          -8.8366   -3.1627    0.0040 C.3     1  LIG1       -0.0365
     49 H          -7.9215   -2.9320    0.5084 H       1  LIG1        0.0279
     50 H          -8.6251   -3.4497   -1.0049 H       1  LIG1        0.0279
     51 H          -9.3285   -3.9681    0.5083 H       1  LIG1        0.0279
     52 C         -11.8138   -3.1578    0.0089 C.1     1  LIG1       -0.0679
     53 C         -12.5292   -4.1227    0.0107 C.1     1  LIG1       -0.1139
     54 H         -13.1664   -4.9823    0.0124 H       1  LIG1        0.1232
@<TRIPOS>BOND
     1    23    21    1
     2    10     8    1
     3    36    34    1
     4    50    48    1
     5    21    16    1
     6    21    24    1
     7    21    22    1
     8     2     8    1
     9     2     1   ar
    10     2     3   ar
    11    16    15   ar
    12    16    17   ar
    13     4    15    1
    14     4     5   ar
    15     4     3   ar
    16     6     5    1
    17     8    11    1
    18     8     9    1
    19    20    19    1
    20    15    19   ar
    21     5     1   ar
    22     1     7    1
    23     3    12    1
    24    19    18   ar
    25    18    17   ar
    26    18    28    1
    27    12    13    3
    28    17    25    1
    29    33    32    1
    30    28    29   ar
    31    28    32   ar
    32    34    29    1
    33    34    37    1
    34    34    35    1
    35    29    30   ar
    36    13    14    1
    37    32    31   ar
    38    25    26    3
    39    31    30   ar
    40    31    41    1
    41    26    27    1
    42    30    38    1
    43    48    42    1
    44    48    51    1
    45    48    49    1
    46    41    42   ar
    47    41    45   ar
    48    46    45    1
    49    42    43   ar
    50    45    44   ar
    51    38    39    3
    52    44    43   ar
    53    44    47    1
    54    43    52    1
    55    39    40    1
    56    52    53    3
    57    53    54    1
