@<TRIPOS>MOLECULE
mol_data/noopt/geoms/mol2/13ie12ih(80)12ed(90)4ed(260).out
 50 54 0 0 0
SMALL
GASTEIGER

@<TRIPOS>ATOM
      1 C           1.1215   -0.3259    0.0002 C.ar    1  LIG1        0.0064
      2 C           0.7176    0.9721   -0.0005 C.ar    1  LIG1       -0.0171
      3 C          -0.7144    0.9744    0.0003 C.ar    1  LIG1        0.0558
      4 C          -1.1226   -0.3223   -0.0003 C.ar    1  LIG1        0.0982
      5 N          -0.0018   -1.1217    0.0001 N.ar    1  LIG1       -0.3570
      6 H          -0.0034   -2.1157   -0.0003 H       1  LIG1        0.1655
      7 H           2.3167   -0.8373    0.0007 H       1  LIG1        0.0810
      8 C           1.4920    2.0167   -0.0003 C.3     1  LIG1       -0.0371
      9 H           1.0026    2.8234    0.5042 H       1  LIG1        0.0278
     10 H           1.7045    2.3034   -1.0091 H       1  LIG1        0.0278
     11 H           2.4062    1.7828    0.5041 H       1  LIG1        0.0278
     12 C          -1.4853    2.0212    0.0010 C.1     1  LIG1       -0.0672
     13 C          -2.1976    2.9884    0.0016 C.1     1  LIG1       -0.1138
     14 H          -2.8321    3.8500    0.0022 H       1  LIG1        0.1232
     15 C          -2.3194   -0.8299   -0.0001 C.ar    1  LIG1        0.1578
     16 C          -3.2991   -1.0381    0.9485 C.ar    1  LIG1        0.0182
     17 C          -4.4134   -1.6603    0.2643 C.ar    1  LIG1        0.0777
     18 C          -4.0405   -1.7911   -1.0576 C.ar    1  LIG1        0.1926
     19 O          -2.7535   -1.2861   -1.2455 O.2     1  LIG1       -0.4480
     20 C          -3.2568   -0.7434    2.2143 C.3     1  LIG1       -0.0343
     21 H          -4.1798   -1.0243    2.6770 H       1  LIG1        0.0279
     22 H          -3.1055    0.3095    2.3306 H       1  LIG1        0.0279
     23 H          -2.4502   -1.2729    2.6769 H       1  LIG1        0.0279
     24 N          -5.5365   -2.0165    0.8138 N.pl3   1  LIG1       -0.3547
     25 H          -6.2612   -1.3898    0.5274 H       1  LIG1        0.1424
     26 H          -5.7675   -2.9463    0.5274 H       1  LIG1        0.1424
     27 C          -4.5960   -2.2621   -2.1344 C.ar    1  LIG1        0.1880
     28 C          -5.6273   -3.1368   -2.4070 C.ar    1  LIG1        0.0796
     29 C          -5.7284   -3.2224   -3.8490 C.ar    1  LIG1        0.0446
     30 C          -4.7517   -2.3940   -4.3622 C.ar    1  LIG1        0.1434
     31 O          -4.0402   -1.7906   -3.3246 O.2     1  LIG1       -0.4500
     32 C          -6.3771   -3.7727   -1.5564 C.1     1  LIG1       -0.0654
     33 C          -7.0698   -4.3603   -0.7705 C.1     1  LIG1       -0.1138
     34 H          -7.6869   -4.8837   -0.0704 H       1  LIG1        0.1232
     35 N          -7.3378   -4.5873   -5.0870 N.pl3   1  LIG1       -0.2335
     36 C          -6.5836   -3.9477   -4.5068 C.3     1  LIG1        0.1422
     37 C          -5.1184   -2.4277   -6.6791 C.2     1  LIG1        0.0143
     38 C          -4.6450   -2.0403   -7.9476 C.3     1  LIG1        0.0225
     39 C          -4.3547   -2.0574   -5.5534 C.2     1  LIG1        0.0302
     40 C          -3.4639   -1.3157   -8.0912 C.2     1  LIG1       -0.0577
     41 H          -5.2188   -2.3158   -8.8297 H       1  LIG1        0.0407
     42 C          -3.1755   -1.3340   -5.6961 C.2     1  LIG1       -0.0331
     43 C          -2.7219   -0.9581   -6.9648 C.2     1  LIG1        0.0492
     44 H          -2.6043   -1.0605   -4.8127 H       1  LIG1        0.0638
     45 H          -3.0561   -0.9745   -9.2775 H       1  LIG1        0.0591
     46 C          -6.2273   -3.1025   -6.6088 C.1     1  LIG1       -0.0983
     47 C          -7.2520   -3.7260   -6.5439 C.2     1  LIG1        0.0548
     48 H          -8.1647   -4.2814   -6.4860 H       1  LIG1        0.0888
     49 N          -0.6459    0.3141   -7.2044 N.1     1  LIG1       -0.1909
     50 C          -1.6188   -0.2821   -7.0921 C.1     1  LIG1        0.0989
@<TRIPOS>BOND
     1    45    40    1
     2    41    38    1
     3    40    38    1
     4    40    43    2
     5    38    37    1
     6    49    50    3
     7    50    43    1
     8    43    42    1
     9    37    46    2
    10    37    39    1
    11    46    47    2
    12    47    48    1
    13    47    35    1
    14    42    39    2
    15    42    44    1
    16    39    30    1
    17    35    36    1
    18    36    29    1
    19    30    29   ar
    20    30    31   ar
    21    29    28   ar
    22    31    27   ar
    23    28    27   ar
    24    28    32    1
    25    27    18    1
    26    32    33    3
    27    19    18   ar
    28    19    15   ar
    29    18    17   ar
    30    10     8    1
    31    33    34    1
    32     2     8    1
    33     2     1   ar
    34     2     3   ar
    35     8    11    1
    36     8     9    1
    37     6     5    1
    38     4    15    1
    39     4     5   ar
    40     4     3   ar
    41    15    16   ar
    42     5     1   ar
    43     1     7    1
    44     3    12    1
    45    12    13    3
    46    13    14    1
    47    17    24    1
    48    17    16   ar
    49    26    24    1
    50    25    24    1
    51    16    20    1
    52    20    22    1
    53    20    23    1
    54    20    21    1
