@<TRIPOS>MOLECULE
mol_data/noopt/geoms/mol2/13ie6dh(200)12ei(150)4ef(90).out
 52 56 0 0 0
SMALL
GASTEIGER

@<TRIPOS>ATOM
      1 C           1.1215   -0.3259    0.0002 C.2     1  LIG1       -0.0058
      2 C           0.7176    0.9721   -0.0005 C.2     1  LIG1       -0.0237
      3 C          -0.7144    0.9744    0.0003 C.2     1  LIG1        0.0304
      4 C          -1.1226   -0.3223   -0.0003 C.3     1  LIG1        0.1220
      5 N          -0.0018   -1.1217    0.0001 N.pl3   1  LIG1       -0.3334
      6 H          -0.0034   -2.1157   -0.0003 H       1  LIG1        0.1468
      7 H           2.3167   -0.8373    0.0007 H       1  LIG1        0.0781
      8 C           1.4920    2.0167   -0.0003 C.3     1  LIG1       -0.0376
      9 H           1.0026    2.8234    0.5042 H       1  LIG1        0.0278
     10 H           1.7045    2.3034   -1.0091 H       1  LIG1        0.0278
     11 H           2.4062    1.7828    0.5041 H       1  LIG1        0.0278
     12 C          -1.4853    2.0212    0.0010 C.1     1  LIG1       -0.0968
     13 C          -2.1976    2.9884    0.0016 C.2     1  LIG1        0.0549
     14 H          -2.8321    3.8500    0.0022 H       1  LIG1        0.0888
     15 C          -3.4195   -0.0572    0.4147 C.ar    1  LIG1        0.0783
     16 C          -2.3194   -0.8299   -0.0001 C.ar    1  LIG1        0.0089
     17 C          -2.5450   -2.1457   -0.4086 C.ar    1  LIG1       -0.0314
     18 C          -3.8499   -2.6410   -0.3891 C.ar    1  LIG1        0.0543
     19 C          -4.8845   -1.7908    0.0426 C.ar    1  LIG1        0.1281
     20 N          -4.6848   -0.5190    0.4399 N.ar    1  LIG1       -0.2439
     21 H          -1.7101   -2.7801   -0.7384 H       1  LIG1        0.0641
     22 N          -3.1193    2.2579    1.1470 N.pl3   1  LIG1       -0.2320
     23 C          -3.2600    1.1729    0.8038 C.3     1  LIG1        0.1572
     24 N          -4.1120   -3.8593   -0.7595 N.pl3   1  LIG1       -0.3562
     25 H          -4.9491   -3.8686   -1.3064 H       1  LIG1        0.1424
     26 H          -3.3527   -4.2120   -1.3064 H       1  LIG1        0.1424
     27 C          -6.1159   -2.2061    0.0784 C.ar    1  LIG1        0.1711
     28 C          -6.7600   -3.3344    0.5420 C.ar    1  LIG1        0.0754
     29 C          -8.1691   -3.1522    0.2619 C.ar    1  LIG1        0.0114
     30 C          -8.2925   -1.9240   -0.3544 C.ar    1  LIG1        0.1411
     31 O          -7.0402   -1.3213   -0.4787 O.2     1  LIG1       -0.4517
     32 C          -6.2310   -4.3717    1.1200 C.1     1  LIG1       -0.0655
     33 C          -5.7422   -5.3302    1.6542 C.1     1  LIG1       -0.1138
     34 H          -5.3068   -6.1840    2.1299 H       1  LIG1        0.1232
     35 C          -9.1140   -3.9987    0.5471 C.3     1  LIG1       -0.0349
     36 H          -8.7079   -4.8078    1.1174 H       1  LIG1        0.0279
     37 H          -9.5380   -4.3785   -0.3590 H       1  LIG1        0.0279
     38 H          -9.8738   -3.5063    1.1174 H       1  LIG1        0.0279
     39 C         -10.1743   -0.5824    0.0491 C.ar    1  LIG1        0.0356
     40 C         -11.2251    0.1654   -0.5166 C.ar    1  LIG1       -0.0422
     41 C          -9.2771   -1.2215   -0.8308 C.ar    1  LIG1        0.0364
     42 C         -11.3773    0.2739   -1.8971 C.ar    1  LIG1       -0.0190
     43 H         -11.9289    0.6666    0.1442 H       1  LIG1        0.0631
     44 C          -9.4286   -1.1136   -2.2090 C.ar    1  LIG1       -0.0083
     45 C         -10.4787   -0.3658   -2.7518 C.ar    1  LIG1        0.1176
     46 H          -8.7237   -1.6159   -2.8666 H       1  LIG1        0.0661
     47 H         -12.3589    0.9726   -2.3853 H       1  LIG1        0.0654
     48 C         -10.0839   -0.6464    1.3444 C.1     1  LIG1       -0.0689
     49 C         -10.0004   -0.7056    2.5412 C.1     1  LIG1       -0.1139
     50 H          -9.9260   -0.7583    3.6073 H       1  LIG1        0.1232
     51 O         -10.6155   -0.2686   -4.0410 O.3     1  LIG1       -0.5067
     52 H         -11.1735   -0.9822   -4.3587 H       1  LIG1        0.2921
@<TRIPOS>BOND
     1    52    51    1
     2    51    45    1
     3    46    44    1
     4    45    44   ar
     5    45    42   ar
     6    47    42    1
     7    44    41   ar
     8    42    40   ar
     9    26    24    1
    10    25    24    1
    11    10     8    1
    12    41    30    1
    13    41    39   ar
    14    24    18    1
    15    21    17    1
    16    40    39   ar
    17    40    43    1
    18    31    30   ar
    19    31    27   ar
    20    17    18   ar
    21    17    16   ar
    22    18    19   ar
    23    37    35    1
    24    30    29   ar
    25     2     8    1
    26     2     1    2
    27     2     3    1
    28     8    11    1
    29     8     9    1
    30     4    16    1
    31     4     5    1
    32     4     3    1
    33     6     5    1
    34    16    15   ar
    35     5     1    1
    36     1     7    1
    37     3    12    2
    38    12    13    2
    39    13    14    1
    40    13    22    1
    41    19    27    1
    42    19    20   ar
    43    39    48    1
    44    27    28   ar
    45    29    28   ar
    46    29    35    1
    47    15    20   ar
    48    15    23    1
    49    28    32    1
    50    35    38    1
    51    35    36    1
    52    23    22    1
    53    32    33    3
    54    48    49    3
    55    33    34    1
    56    49    50    1
