@<TRIPOS>MOLECULE
mol_data/noopt/geoms/mol2/13ie13ha6de12dh4ie-4fa12hi13he.out
 97 105 0 0 0
SMALL
GASTEIGER

@<TRIPOS>ATOM
      1 C           1.1215   -0.3259    0.0002 C.ar    1  LIG1        0.0063
      2 C           0.7176    0.9721   -0.0005 C.ar    1  LIG1       -0.0171
      3 C          -0.7144    0.9744    0.0003 C.ar    1  LIG1        0.0543
      4 C          -1.1226   -0.3223   -0.0003 C.ar    1  LIG1        0.0805
      5 N          -0.0018   -1.1217    0.0001 N.ar    1  LIG1       -0.3582
      6 H          -0.0034   -2.1157   -0.0003 H       1  LIG1        0.1654
      7 H           2.3167   -0.8373    0.0007 H       1  LIG1        0.0810
      8 C           1.4920    2.0167   -0.0003 C.3     1  LIG1       -0.0371
      9 H           1.0026    2.8234    0.5042 H       1  LIG1        0.0278
     10 H           1.7045    2.3034   -1.0091 H       1  LIG1        0.0278
     11 H           2.4062    1.7828    0.5041 H       1  LIG1        0.0278
     12 C          -1.4853    2.0212    0.0010 C.1     1  LIG1       -0.0672
     13 C          -2.1976    2.9884    0.0016 C.1     1  LIG1       -0.1138
     14 H          -2.8321    3.8500    0.0022 H       1  LIG1        0.1232
     15 C          -2.3194   -0.8299   -0.0001 C.ar    1  LIG1        0.0854
     16 C          -3.5352   -0.2220    0.0163 C.ar    1  LIG1        0.0522
     17 C          -4.5290   -1.2531    0.0088 C.ar    1  LIG1       -0.0152
     18 C          -3.8768   -2.4456   -0.0136 C.ar    1  LIG1        0.0482
     19 N          -2.5238   -2.1911   -0.0187 N.ar    1  LIG1       -0.3517
     20 H          -1.8082   -2.8808   -0.0339 H       1  LIG1        0.1660
     21 N          -3.7519    1.0596    0.0366 N.pl3   1  LIG1       -0.3563
     22 H          -3.0036    1.5316   -0.4295 H       1  LIG1        0.1424
     23 H          -4.6137    1.2594   -0.4295 H       1  LIG1        0.1424
     24 H          -5.8179   -1.0839    0.0207 H       1  LIG1        0.0657
     25 C          -3.4590   -4.7572   -0.0357 C.3     1  LIG1        0.2162
     26 C          -4.3399   -3.6602   -0.0280 C.2     1  LIG1        0.0221
     27 C          -5.7137   -3.9084   -0.0358 C.2     1  LIG1       -0.0362
     28 C          -6.1574   -5.2318   -0.0511 C.2     1  LIG1        0.0473
     29 C          -5.1987   -6.2615   -0.0580 C.2     1  LIG1        0.1181
     30 N          -3.8697   -6.0401   -0.0504 N.2     1  LIG1       -0.2488
     31 H          -6.4325   -3.0768   -0.0311 H       1  LIG1        0.0635
     32 N          -1.0360   -4.4180   -0.0227 N.1     1  LIG1       -0.1935
     33 C          -2.1715   -4.5770   -0.0288 C.1     1  LIG1        0.1016
     34 C          -7.4261   -5.5152   -0.0590 C.1     1  LIG1       -0.0931
     35 C          -8.5984   -5.7771   -0.0664 C.2     1  LIG1        0.0551
     36 H          -9.6427   -6.0103   -0.0729 H       1  LIG1        0.0888
     37 C          -5.5624   -7.5095   -0.0721 C.ar    1  LIG1        0.1619
     38 C          -6.7664   -8.1828   -0.0828 C.ar    1  LIG1        0.0513
     39 C          -6.4512   -9.5961   -0.0966 C.ar    1  LIG1        0.0772
     40 C          -5.0749   -9.6927   -0.0935 C.ar    1  LIG1        0.1569
     41 O          -4.5044   -8.4194   -0.0786 O.2     1  LIG1       -0.4510
     42 N          -9.0178   -7.2250   -0.0795 N.pl3   1  LIG1       -0.2334
     43 C          -7.9627   -7.6739   -0.0810 C.3     1  LIG1        0.1429
     44 N          -7.3174  -10.5654   -0.1093 N.pl3   1  LIG1       -0.3548
     45 H          -8.1453  -10.2664   -0.5840 H       1  LIG1        0.1424
     46 H          -6.9276  -11.3545   -0.5840 H       1  LIG1        0.1424
     47 C          -4.6664  -12.0029   -0.0830 C.ar    1  LIG1       -0.0391
     48 C          -3.6951  -13.0225   -0.0906 C.ar    1  LIG1       -0.0492
     49 C          -4.2148  -10.6674   -0.1011 C.ar    1  LIG1        0.0232
     50 C          -2.3338  -12.7279   -0.1157 C.ar    1  LIG1        0.0013
     51 H          -4.0217  -14.0600   -0.0768 H       1  LIG1        0.0627
     52 C          -2.8559  -10.3726   -0.1260 C.ar    1  LIG1       -0.0348
     53 C          -1.9063  -11.3997   -0.1336 C.ar    1  LIG1        0.0332
     54 H          -2.5328   -9.3348   -0.1395 H       1  LIG1        0.0637
     55 C          -5.9220  -12.3402   -0.0597 C.3     1  LIG1       -0.0390
     56 H          -6.0310  -13.2741    0.4511 H       1  LIG1        0.0278
     57 H          -6.2839  -12.4375   -1.0620 H       1  LIG1        0.0278
     58 H          -6.4843  -11.5866    0.4510 H       1  LIG1        0.0278
     59 C          -0.6374  -11.1181   -0.1569 C.1     1  LIG1       -0.0690
     60 C           0.5351  -10.8579   -0.1783 C.1     1  LIG1       -0.1139
     61 H           1.5795  -10.6262   -0.1975 H       1  LIG1        0.1232
     62 C          -1.9031  -15.0340   -0.1249 C.ar    1  LIG1        0.1252
     63 C          -0.9219  -16.0443   -0.1304 C.ar    1  LIG1       -0.0089
     64 C          -1.4643  -13.6942   -0.1221 C.ar    1  LIG1        0.0248
     65 C           0.4367  -15.7364   -0.1336 C.ar    1  LIG1        0.0226
     66 H          -1.2386  -17.0849   -0.1324 H       1  LIG1        0.0661
     67 C          -0.1081  -13.3862   -0.1254 C.ar    1  LIG1       -0.0498
     68 C           0.8514  -14.4040   -0.1312 C.ar    1  LIG1       -0.0502
     69 H           0.2051  -12.3453   -0.1231 H       1  LIG1        0.0625
     70 O          -3.1553  -15.3835   -0.1223 O.3     1  LIG1       -0.5061
     71 H          -3.2207  -16.3413   -0.1217 H       1  LIG1        0.2922
     72 H           2.1178  -14.1101   -0.1341 H       1  LIG1        0.0625
     73 C           1.3156  -16.6942   -0.1388 C.ar    1  LIG1        0.1566
     74 C           1.2677  -18.0728   -0.1279 C.ar    1  LIG1        0.0746
     75 C           2.6397  -18.5357   -0.1436 C.ar    1  LIG1        0.0181
     76 C           3.4354  -17.4087   -0.1632 C.ar    1  LIG1        0.1583
     77 O           2.6420  -16.2609   -0.1607 O.2     1  LIG1       -0.4511
     78 N           0.2127  -18.8322   -0.1075 N.pl3   1  LIG1       -0.3548
     79 H          -0.5408  -18.3686   -0.5736 H       1  LIG1        0.1424
     80 H           0.4132  -19.6939   -0.5736 H       1  LIG1        0.1424
     81 C           3.0201  -19.7791   -0.1397 C.3     1  LIG1       -0.0343
     82 H           3.9594  -19.8632    0.3658 H       1  LIG1        0.0279
     83 H           3.1254  -20.1231   -1.1475 H       1  LIG1        0.0279
     84 H           2.2886  -20.3743    0.3657 H       1  LIG1        0.0279
     85 C           4.7146  -17.1782   -0.1827 C.ar    1  LIG1        0.1046
     86 C           5.7659  -18.0399   -0.1964 C.ar    1  LIG1        0.0688
     87 C           6.9628  -17.2540   -0.2149 C.ar    1  LIG1        0.0633
     88 C           6.5903  -15.9466   -0.2135 C.ar    1  LIG1        0.0195
     89 N           5.2147  -15.8956   -0.1934 N.ar    1  LIG1       -0.3556
     90 H           4.6692  -15.0647   -0.1881 H       1  LIG1        0.1655
     91 H           7.3104  -14.8643   -0.2265 H       1  LIG1        0.0820
     92 N           5.6940  -19.3379   -0.1918 N.pl3   1  LIG1       -0.3553
     93 H           4.8602  -19.6272   -0.6620 H       1  LIG1        0.1424
     94 H           6.4906  -19.7176   -0.6620 H       1  LIG1        0.1424
     95 C           8.1824  -17.7040   -0.2306 C.1     1  LIG1       -0.0663
     96 C           9.3092  -18.1198   -0.2452 C.1     1  LIG1       -0.1138
     97 H          10.3130  -18.4902   -0.2581 H       1  LIG1        0.1232
@<TRIPOS>BOND
     1    83    81    1
     2    57    55    1
     3    10     8    1
     4    94    92    1
     5    93    92    1
     6    46    44    1
     7    45    44    1
     8    80    78    1
     9    79    78    1
    10    23    21    1
    11    22    21    1
    12    97    96    1
    13    96    95    3
    14    95    87    1
    15    91    88    1
    16    87    88   ar
    17    87    86   ar
    18    88    89   ar
    19    61    60    1
    20    86    92    1
    21    86    85   ar
    22    89    90    1
    23    89    85   ar
    24    85    76    1
    25    60    59    3
    26    76    77   ar
    27    76    75   ar
    28    77    73   ar
    29    59    53    1
    30    75    81    1
    31    75    74   ar
    32    81    84    1
    33    81    82    1
    34    54    52    1
    35    73    65    1
    36    73    74   ar
    37    72    68    1
    38    53    52   ar
    39    53    50   ar
    40    65    68   ar
    41    65    63   ar
    42    66    63    1
    43    68    67   ar
    44    63    62   ar
    45    74    78    1
    46    52    49   ar
    47    67    69    1
    48    67    64   ar
    49    62    70    1
    50    62    64   ar
    51    70    71    1
    52    64    50    1
    53    50    48   ar
    54    44    39    1
    55    49    40    1
    56    49    47   ar
    57    39    40   ar
    58    39    38   ar
    59    40    41   ar
    60    48    47   ar
    61    48    51    1
    62    47    55    1
    63    38    43    1
    64    38    37   ar
    65    43    42    1
    66    42    35    1
    67    41    37   ar
    68    36    35    1
    69    37    29    1
    70    35    34    2
    71    55    58    1
    72    55    56    1
    73    34    28    2
    74    29    28    1
    75    29    30    2
    76    28    27    1
    77    30    25    1
    78    27    31    1
    79    27    26    2
    80    25    33    1
    81    25    26    1
    82    20    19    1
    83    33    32    3
    84    26    18    1
    85    19    18   ar
    86    19    15   ar
    87    18    17   ar
    88     2     8    1
    89     2     1   ar
    90     2     3   ar
    91     4    15    1
    92     4     5   ar
    93     4     3   ar
    94     6     5    1
    95     8    11    1
    96     8     9    1
    97    15    16   ar
    98     5     1   ar
    99     1     7    1
   100     3    12    1
   101    12    13    3
   102    13    14    1
   103    17    16   ar
   104    17    24    1
   105    16    21    1
