@<TRIPOS>MOLECULE
mol_data/noopt/geoms/mol2/13ie12hd(40)6la(90)6ee(70).out
 51 54 0 0 0
SMALL
GASTEIGER

@<TRIPOS>ATOM
      1 C           1.1215   -0.3259    0.0002 C.ar    1  LIG1        0.0064
      2 C           0.7176    0.9721   -0.0005 C.ar    1  LIG1       -0.0171
      3 C          -0.7144    0.9744    0.0003 C.ar    1  LIG1        0.0559
      4 C          -1.1226   -0.3223   -0.0003 C.ar    1  LIG1        0.0998
      5 N          -0.0018   -1.1217    0.0001 N.ar    1  LIG1       -0.3570
      6 H          -0.0034   -2.1157   -0.0003 H       1  LIG1        0.1655
      7 H           2.3167   -0.8373    0.0007 H       1  LIG1        0.0810
      8 C           1.4920    2.0167   -0.0003 C.3     1  LIG1       -0.0371
      9 H           1.0026    2.8234    0.5042 H       1  LIG1        0.0278
     10 H           1.7045    2.3034   -1.0091 H       1  LIG1        0.0278
     11 H           2.4062    1.7828    0.5041 H       1  LIG1        0.0278
     12 C          -1.4853    2.0212    0.0010 C.1     1  LIG1       -0.0672
     13 C          -2.1976    2.9884    0.0016 C.1     1  LIG1       -0.1138
     14 H          -2.8321    3.8500    0.0022 H       1  LIG1        0.1232
     15 C          -2.3194   -0.8299   -0.0001 C.ar    1  LIG1        0.1748
     16 C          -3.5290   -0.4962    0.5730 C.ar    1  LIG1        0.0907
     17 C          -4.4774   -1.5094    0.1598 C.ar    1  LIG1        0.1188
     18 C          -3.7841   -2.3954   -0.6389 C.ar    1  LIG1        0.1600
     19 O          -2.4515   -1.9978   -0.7526 O.2     1  LIG1       -0.4499
     20 N          -3.7934    0.5214    1.3376 N.pl3   1  LIG1       -0.3540
     21 H          -3.1407    1.2560    1.1524 H       1  LIG1        0.1425
     22 H          -4.7212    0.8454    1.1524 H       1  LIG1        0.1425
     23 N          -6.8415   -1.5892    0.7846 N.1     1  LIG1       -0.1907
     24 C          -5.7336   -1.5518    0.4918 C.1     1  LIG1        0.1049
     25 C          -4.0805   -3.4898   -2.6963 C.ar    1  LIG1        0.2260
     26 C          -4.0785   -3.4818   -1.2895 C.ar    1  LIG1        0.0801
     27 C          -4.3982   -4.6619   -0.6156 C.ar    1  LIG1       -0.0439
     28 C          -4.7065   -5.8000   -1.3628 C.ar    1  LIG1       -0.0347
     29 C          -4.6818   -5.7087   -2.7666 C.ar    1  LIG1        0.0775
     30 N          -4.3755   -4.5785   -3.4329 N.ar    1  LIG1       -0.2122
     31 H          -4.4080   -4.6937    0.4831 H       1  LIG1        0.0627
     32 O          -3.7895   -2.4157   -3.3685 O.3     1  LIG1       -0.4792
     33 C          -2.3815   -2.3740   -3.6153 C.3     1  LIG1        0.0804
     34 H          -2.1424   -1.4900   -4.1687 H       1  LIG1        0.0660
     35 H          -1.8561   -2.3643   -2.6832 H       1  LIG1        0.0660
     36 H          -2.0925   -3.2365   -4.1787 H       1  LIG1        0.0660
     37 H          -5.0109   -6.9228   -0.7825 H       1  LIG1        0.0639
     38 C          -4.5436   -6.7885   -4.8482 C.ar    1  LIG1        0.1223
     39 C          -4.9614   -6.7410   -3.5056 C.ar    1  LIG1        0.0354
     40 C          -5.6782   -7.8232   -2.9918 C.ar    1  LIG1       -0.0330
     41 C          -5.9513   -8.9066   -3.8287 C.ar    1  LIG1        0.0435
     42 C          -5.4913   -8.8612   -5.1575 C.ar    1  LIG1        0.0444
     43 N          -4.7983   -7.8254   -5.6696 N.ar    1  LIG1       -0.2448
     44 H          -6.0221   -7.8215   -1.9477 H       1  LIG1        0.0638
     45 H          -5.7205   -9.8456   -5.9750 H       1  LIG1        0.0842
     46 C          -3.8735   -5.8053   -5.3719 C.1     1  LIG1       -0.0491
     47 C          -3.2544   -4.8968   -5.8559 C.1     1  LIG1       -0.1124
     48 H          -2.7028   -4.0875   -6.2869 H       1  LIG1        0.1232
     49 C          -6.6152   -9.9379   -3.3979 C.1     1  LIG1       -0.0681
     50 C          -7.2287  -10.8908   -2.9999 C.1     1  LIG1       -0.1139
     51 H          -7.7752  -11.7397   -2.6454 H       1  LIG1        0.1232
@<TRIPOS>BOND
     1    48    47    1
     2    45    42    1
     3    47    46    3
     4    43    42   ar
     5    43    38   ar
     6    46    38    1
     7    42    41   ar
     8    38    39   ar
     9    36    33    1
    10    34    33    1
    11    41    49    1
    12    41    40   ar
    13    33    32    1
    14    33    35    1
    15    39    40   ar
    16    39    29    1
    17    30    29   ar
    18    30    25   ar
    19    49    50    3
    20    32    25    1
    21    50    51    1
    22    40    44    1
    23    29    28   ar
    24    25    26   ar
    25    28    37    1
    26    28    27   ar
    27    26    18    1
    28    26    27   ar
    29    10     8    1
    30    19    18   ar
    31    19    15   ar
    32    18    17   ar
    33    27    31    1
    34     2     8    1
    35     2     1   ar
    36     2     3   ar
    37     4    15    1
    38     4     5   ar
    39     4     3   ar
    40     6     5    1
    41     8    11    1
    42     8     9    1
    43    15    16   ar
    44     5     1   ar
    45     1     7    1
    46     3    12    1
    47    12    13    3
    48    13    14    1
    49    17    24    1
    50    17    16   ar
    51    24    23    3
    52    16    20    1
    53    22    20    1
    54    21    20    1
