@<TRIPOS>MOLECULE
mol_data/noopt/geoms/mol2/13ie13ie-4ie13ie.out
 56 59 0 0 0
SMALL
GASTEIGER

@<TRIPOS>ATOM
      1 C           1.1215   -0.3259    0.0002 C.ar    1  LIG1        0.0063
      2 C           0.7176    0.9721   -0.0005 C.ar    1  LIG1       -0.0171
      3 C          -0.7144    0.9744    0.0003 C.ar    1  LIG1        0.0542
      4 C          -1.1226   -0.3223   -0.0003 C.ar    1  LIG1        0.0790
      5 N          -0.0018   -1.1217    0.0001 N.ar    1  LIG1       -0.3583
      6 H          -0.0034   -2.1157   -0.0003 H       1  LIG1        0.1654
      7 H           2.3167   -0.8373    0.0007 H       1  LIG1        0.0810
      8 C           1.4920    2.0167   -0.0003 C.3     1  LIG1       -0.0371
      9 H           1.0026    2.8234    0.5042 H       1  LIG1        0.0278
     10 H           1.7045    2.3034   -1.0091 H       1  LIG1        0.0278
     11 H           2.4062    1.7828    0.5041 H       1  LIG1        0.0278
     12 C          -1.4853    2.0212    0.0010 C.1     1  LIG1       -0.0672
     13 C          -2.1976    2.9884    0.0016 C.1     1  LIG1       -0.1138
     14 H          -2.8321    3.8500    0.0022 H       1  LIG1        0.1232
     15 C          -2.3194   -0.8299   -0.0001 C.ar    1  LIG1        0.0687
     16 C          -2.7274   -2.1266   -0.0005 C.ar    1  LIG1       -0.0077
     17 C          -4.1594   -2.1244    0.0011 C.ar    1  LIG1        0.0534
     18 C          -4.5635   -0.8264    0.0006 C.ar    1  LIG1        0.0631
     19 N          -3.4402   -0.0305    0.0003 N.ar    1  LIG1       -0.3518
     20 H          -3.4386    0.9635   -0.0001 H       1  LIG1        0.1660
     21 C          -1.9564   -3.1736   -0.0006 C.3     1  LIG1       -0.0365
     22 H          -1.0413   -2.9428    0.5038 H       1  LIG1        0.0279
     23 H          -1.7448   -3.4607   -1.0095 H       1  LIG1        0.0279
     24 H          -2.4483   -3.9789    0.5037 H       1  LIG1        0.0279
     25 C          -4.9336   -3.1687    0.0023 C.1     1  LIG1       -0.0673
     26 C          -5.6490   -4.1337    0.0035 C.1     1  LIG1       -0.1138
     27 H          -6.2862   -4.9932    0.0045 H       1  LIG1        0.1232
     28 C          -5.9236    1.0852    0.0026 C.ar    1  LIG1       -0.0406
     29 C          -7.2385    1.5895    0.0050 C.ar    1  LIG1       -0.0479
     30 C          -5.7587   -0.3150    0.0014 C.ar    1  LIG1        0.0036
     31 C          -8.3419    0.7391    0.0056 C.ar    1  LIG1        0.0142
     32 H          -7.3885    2.6668    0.0062 H       1  LIG1        0.0627
     33 C          -6.8598   -1.1644    0.0020 C.ar    1  LIG1       -0.0363
     34 C          -8.1582   -0.6442    0.0040 C.ar    1  LIG1        0.0344
     35 H          -6.7065   -2.2406    0.0011 H       1  LIG1        0.0637
     36 C          -4.9340    1.9287    0.0020 C.3     1  LIG1       -0.0391
     37 H          -5.2291    2.8252    0.5062 H       1  LIG1        0.0278
     38 H          -4.6630    2.1598   -1.0071 H       1  LIG1        0.0278
     39 H          -4.0956    1.4954    0.5061 H       1  LIG1        0.0278
     40 C          -9.1838   -1.4431    0.0046 C.1     1  LIG1       -0.0690
     41 C         -10.1314   -2.1813    0.0053 C.1     1  LIG1       -0.1139
     42 H         -10.9755   -2.8388    0.0058 H       1  LIG1        0.1232
     43 C          -9.5420    1.2389    0.0077 C.ar    1  LIG1        0.0518
     44 C          -9.9585    2.5329    0.0088 C.ar    1  LIG1       -0.0098
     45 C         -11.3904    2.5213    0.0122 C.ar    1  LIG1        0.0454
     46 C         -11.7860    1.2207    0.0113 C.ar    1  LIG1        0.0179
     47 N         -10.6575    0.4322    0.0090 N.ar    1  LIG1       -0.3593
     48 H         -10.6495   -0.5617    0.0079 H       1  LIG1        0.1654
     49 H         -12.9778    0.7015    0.0134 H       1  LIG1        0.0819
     50 C          -9.1942    3.5849    0.0084 C.3     1  LIG1       -0.0365
     51 H          -9.6913    4.3871    0.5127 H       1  LIG1        0.0279
     52 H          -8.9848    3.8733   -1.0006 H       1  LIG1        0.0279
     53 H          -8.2777    3.3601    0.5126 H       1  LIG1        0.0279
     54 C         -12.1714    3.5606    0.0152 C.1     1  LIG1       -0.0679
     55 C         -12.8930    4.5208    0.0179 C.1     1  LIG1       -0.1139
     56 H         -13.5359    5.3762    0.0203 H       1  LIG1        0.1232
@<TRIPOS>BOND
     1    23    21    1
     2    10     8    1
     3    38    36    1
     4    52    50    1
     5    21    16    1
     6    21    24    1
     7    21    22    1
     8     2     8    1
     9     2     1   ar
    10     2     3   ar
    11    16    15   ar
    12    16    17   ar
    13     4    15    1
    14     4     5   ar
    15     4     3   ar
    16     6     5    1
    17     8    11    1
    18     8     9    1
    19    20    19    1
    20    15    19   ar
    21     5     1   ar
    22     1     7    1
    23     3    12    1
    24    19    18   ar
    25    18    17   ar
    26    18    30    1
    27    12    13    3
    28    17    25    1
    29    35    33    1
    30    30    33   ar
    31    30    28   ar
    32    13    14    1
    33    36    28    1
    34    36    39    1
    35    36    37    1
    36    33    34   ar
    37    25    26    3
    38    28    29   ar
    39    26    27    1
    40    34    40    1
    41    34    31   ar
    42    40    41    3
    43    29    31   ar
    44    29    32    1
    45    41    42    1
    46    31    43    1
    47    43    44   ar
    48    43    47   ar
    49    48    47    1
    50    50    44    1
    51    50    53    1
    52    50    51    1
    53    44    45   ar
    54    47    46   ar
    55    46    45   ar
    56    46    49    1
    57    45    54    1
    58    54    55    3
    59    55    56    1
