@<TRIPOS>MOLECULE
mol_data/noopt/geoms/mol2/13ie13ie13ie13ie.out
 54 57 0 0 0
SMALL
GASTEIGER

@<TRIPOS>ATOM
      1 C           1.1215   -0.3259    0.0002 C.ar    1  LIG1        0.0063
      2 C           0.7176    0.9721   -0.0005 C.ar    1  LIG1       -0.0171
      3 C          -0.7144    0.9744    0.0003 C.ar    1  LIG1        0.0542
      4 C          -1.1226   -0.3223   -0.0003 C.ar    1  LIG1        0.0790
      5 N          -0.0018   -1.1217    0.0001 N.ar    1  LIG1       -0.3583
      6 H          -0.0034   -2.1157   -0.0003 H       1  LIG1        0.1654
      7 H           2.3167   -0.8373    0.0007 H       1  LIG1        0.0810
      8 C           1.4920    2.0167   -0.0003 C.3     1  LIG1       -0.0371
      9 H           1.0026    2.8234    0.5042 H       1  LIG1        0.0278
     10 H           1.7045    2.3034   -1.0091 H       1  LIG1        0.0278
     11 H           2.4062    1.7828    0.5041 H       1  LIG1        0.0278
     12 C          -1.4853    2.0212    0.0010 C.1     1  LIG1       -0.0672
     13 C          -2.1976    2.9884    0.0016 C.1     1  LIG1       -0.1138
     14 H          -2.8321    3.8500    0.0022 H       1  LIG1        0.1232
     15 C          -2.3194   -0.8299   -0.0001 C.ar    1  LIG1        0.0687
     16 C          -3.5353   -0.2219   -0.0003 C.ar    1  LIG1       -0.0077
     17 C          -4.5290   -1.2530    0.0012 C.ar    1  LIG1        0.0549
     18 C          -3.8767   -2.4457    0.0005 C.ar    1  LIG1        0.0795
     19 N          -2.5238   -2.1913    0.0002 N.ar    1  LIG1       -0.3506
     20 H          -1.8081   -2.8811   -0.0004 H       1  LIG1        0.1660
     21 C          -3.7520    1.0602   -0.0003 C.3     1  LIG1       -0.0365
     22 H          -4.6729    1.2662    0.5041 H       1  LIG1        0.0279
     23 H          -3.8116    1.4119   -1.0091 H       1  LIG1        0.0279
     24 H          -2.9500    1.5575    0.5041 H       1  LIG1        0.0279
     25 C          -5.8179   -1.0837    0.0025 C.1     1  LIG1       -0.0672
     26 C          -7.0089   -0.9273    0.0037 C.1     1  LIG1       -0.1138
     27 H          -8.0698   -0.7879    0.0048 H       1  LIG1        0.1232
     28 C          -4.3398   -3.6604    0.0012 C.ar    1  LIG1        0.0687
     29 C          -5.6206   -4.1160    0.0013 C.ar    1  LIG1       -0.0077
     30 C          -5.5655   -5.5470    0.0033 C.ar    1  LIG1        0.0549
     31 C          -4.2535   -5.9029    0.0026 C.ar    1  LIG1        0.0795
     32 N          -3.4996   -4.7510    0.0018 N.ar    1  LIG1       -0.3506
     33 H          -2.5064   -4.7127    0.0010 H       1  LIG1        0.1660
     34 C          -6.6953   -3.3841    0.0012 C.3     1  LIG1       -0.0365
     35 H          -7.4819   -3.9054    0.5056 H       1  LIG1        0.0279
     36 H          -6.9901   -3.1834   -1.0076 H       1  LIG1        0.0279
     37 H          -6.4984   -2.4612    0.5056 H       1  LIG1        0.0279
     38 C          -6.5805   -6.3592    0.0050 C.1     1  LIG1       -0.0672
     39 C          -7.5184   -7.1097    0.0066 C.1     1  LIG1       -0.1138
     40 H          -8.3539   -7.7782    0.0080 H       1  LIG1        0.1232
     41 C          -3.6983   -7.0784    0.0036 C.ar    1  LIG1        0.0682
     42 C          -4.2571   -8.3176    0.0039 C.ar    1  LIG1       -0.0084
     43 C          -3.1870   -9.2693    0.0063 C.ar    1  LIG1        0.0455
     44 C          -2.0214   -8.5697    0.0055 C.ar    1  LIG1        0.0179
     45 N          -2.3298   -7.2280    0.0043 N.ar    1  LIG1       -0.3581
     46 H          -1.6693   -6.4852    0.0035 H       1  LIG1        0.1654
     47 H          -0.7891   -8.9837    0.0068 H       1  LIG1        0.0819
     48 C          -5.5295   -8.5856    0.0038 C.3     1  LIG1       -0.0365
     49 H          -5.6985   -9.5140    0.5082 H       1  LIG1        0.0279
     50 H          -5.8784   -8.6592   -1.0051 H       1  LIG1        0.0279
     51 H          -6.0586   -7.8042    0.5081 H       1  LIG1        0.0279
     52 C          -3.3045  -10.5639    0.0083 C.1     1  LIG1       -0.0679
     53 C          -3.4131  -11.7602    0.0101 C.1     1  LIG1       -0.1139
     54 H          -3.5098  -12.8258    0.0118 H       1  LIG1        0.1232
@<TRIPOS>BOND
     1    23    21    1
     2    10     8    1
     3    36    34    1
     4    50    48    1
     5     2     8    1
     6     2     1   ar
     7     2     3   ar
     8    20    19    1
     9    16    21    1
    10    16    15   ar
    11    16    17   ar
    12     8    11    1
    13     8     9    1
    14     6     5    1
    15     4    15    1
    16     4     5   ar
    17     4     3   ar
    18    21    24    1
    19    21    22    1
    20    15    19   ar
    21     5     1   ar
    22    19    18   ar
    23     1     7    1
    24     3    12    1
    25    18    17   ar
    26    18    28    1
    27    33    32    1
    28    12    13    3
    29    17    25    1
    30    28    29   ar
    31    28    32   ar
    32    34    29    1
    33    34    37    1
    34    34    35    1
    35    29    30   ar
    36    13    14    1
    37    32    31   ar
    38    25    26    3
    39    31    30   ar
    40    31    41    1
    41    30    38    1
    42    46    45    1
    43    41    42   ar
    44    41    45   ar
    45    26    27    1
    46    48    42    1
    47    48    51    1
    48    48    49    1
    49    42    43   ar
    50    45    44   ar
    51    38    39    3
    52    44    43   ar
    53    44    47    1
    54    43    52    1
    55    39    40    1
    56    52    53    3
    57    53    54    1
