@<TRIPOS>MOLECULE
mol_data/noopt/geoms/mol2/13ie13ie-13ie.out
 41 43 0 0 0
SMALL
GASTEIGER

@<TRIPOS>ATOM
      1 C           1.1215   -0.3259    0.0002 C.ar    1  LIG1        0.0063
      2 C           0.7176    0.9721   -0.0005 C.ar    1  LIG1       -0.0171
      3 C          -0.7144    0.9744    0.0003 C.ar    1  LIG1        0.0542
      4 C          -1.1226   -0.3223   -0.0003 C.ar    1  LIG1        0.0790
      5 N          -0.0018   -1.1217    0.0001 N.ar    1  LIG1       -0.3583
      6 H          -0.0034   -2.1157   -0.0003 H       1  LIG1        0.1654
      7 H           2.3167   -0.8373    0.0007 H       1  LIG1        0.0810
      8 C           1.4920    2.0167   -0.0003 C.3     1  LIG1       -0.0371
      9 H           1.0026    2.8234    0.5042 H       1  LIG1        0.0278
     10 H           1.7045    2.3034   -1.0091 H       1  LIG1        0.0278
     11 H           2.4062    1.7828    0.5041 H       1  LIG1        0.0278
     12 C          -1.4853    2.0212    0.0010 C.1     1  LIG1       -0.0672
     13 C          -2.1976    2.9884    0.0016 C.1     1  LIG1       -0.1138
     14 H          -2.8321    3.8500    0.0022 H       1  LIG1        0.1232
     15 C          -2.3194   -0.8299   -0.0001 C.ar    1  LIG1        0.0687
     16 C          -2.7274   -2.1266   -0.0005 C.ar    1  LIG1       -0.0077
     17 C          -4.1594   -2.1244    0.0011 C.ar    1  LIG1        0.0549
     18 C          -4.5635   -0.8264    0.0006 C.ar    1  LIG1        0.0795
     19 N          -3.4402   -0.0305    0.0003 N.ar    1  LIG1       -0.3506
     20 H          -3.4386    0.9635   -0.0001 H       1  LIG1        0.1660
     21 C          -1.9564   -3.1736   -0.0006 C.3     1  LIG1       -0.0365
     22 H          -1.0413   -2.9428    0.5038 H       1  LIG1        0.0279
     23 H          -1.7448   -3.4607   -1.0095 H       1  LIG1        0.0279
     24 H          -2.4483   -3.9789    0.5037 H       1  LIG1        0.0279
     25 C          -4.9336   -3.1687    0.0023 C.1     1  LIG1       -0.0672
     26 C          -5.6490   -4.1337    0.0035 C.1     1  LIG1       -0.1138
     27 H          -6.2862   -4.9932    0.0045 H       1  LIG1        0.1232
     28 C          -5.7587   -0.3150    0.0014 C.ar    1  LIG1        0.0682
     29 C          -6.1626    0.9830    0.0016 C.ar    1  LIG1       -0.0084
     30 C          -7.5946    0.9853    0.0038 C.ar    1  LIG1        0.0455
     31 C          -8.0028   -0.3114    0.0030 C.ar    1  LIG1        0.0179
     32 N          -6.8820   -1.1108    0.0021 N.ar    1  LIG1       -0.3581
     33 H          -6.8836   -2.1048    0.0013 H       1  LIG1        0.1654
     34 H          -9.1996   -0.8190    0.0041 H       1  LIG1        0.0819
     35 C          -5.3882    2.0276    0.0015 C.3     1  LIG1       -0.0365
     36 H          -5.8776    2.8344    0.5059 H       1  LIG1        0.0279
     37 H          -5.1759    2.3141   -1.0073 H       1  LIG1        0.0279
     38 H          -4.4739    1.7938    0.5059 H       1  LIG1        0.0279
     39 C          -8.3655    2.0321    0.0056 C.1     1  LIG1       -0.0679
     40 C          -9.0778    2.9993    0.0073 C.1     1  LIG1       -0.1139
     41 H          -9.7123    3.8609    0.0088 H       1  LIG1        0.1232
@<TRIPOS>BOND
     1    23    21    1
     2    10     8    1
     3    37    35    1
     4    21    16    1
     5    21    24    1
     6    21    22    1
     7     2     8    1
     8     2     1   ar
     9     2     3   ar
    10    16    15   ar
    11    16    17   ar
    12     4    15    1
    13     4     5   ar
    14     4     3   ar
    15     6     5    1
    16     8    11    1
    17     8     9    1
    18    20    19    1
    19    15    19   ar
    20     5     1   ar
    21     1     7    1
    22     3    12    1
    23    19    18   ar
    24    18    17   ar
    25    18    28    1
    26    12    13    3
    27    17    25    1
    28    33    32    1
    29    28    29   ar
    30    28    32   ar
    31    35    29    1
    32    35    38    1
    33    35    36    1
    34    29    30   ar
    35    13    14    1
    36    32    31   ar
    37    25    26    3
    38    31    30   ar
    39    31    34    1
    40    26    27    1
    41    30    39    1
    42    39    40    3
    43    40    41    1
