@<TRIPOS>MOLECULE
mol_data/noopt/geoms/mol2/13ie13ff(130)13lf(230)13il(270).out
 53 56 0 0 0
SMALL
GASTEIGER

@<TRIPOS>ATOM
      1 C           1.1215   -0.3259    0.0002 C.ar    1  LIG1        0.0063
      2 C           0.7176    0.9721   -0.0005 C.ar    1  LIG1       -0.0171
      3 C          -0.7144    0.9744    0.0003 C.ar    1  LIG1        0.0543
      4 C          -1.1226   -0.3223   -0.0003 C.ar    1  LIG1        0.0824
      5 N          -0.0018   -1.1217    0.0001 N.ar    1  LIG1       -0.3582
      6 H          -0.0034   -2.1157   -0.0003 H       1  LIG1        0.1654
      7 H           2.3167   -0.8373    0.0007 H       1  LIG1        0.0810
      8 C           1.4920    2.0167   -0.0003 C.3     1  LIG1       -0.0371
      9 H           1.0026    2.8234    0.5042 H       1  LIG1        0.0278
     10 H           1.7045    2.3034   -1.0091 H       1  LIG1        0.0278
     11 H           2.4062    1.7828    0.5041 H       1  LIG1        0.0278
     12 C          -1.4853    2.0212    0.0010 C.1     1  LIG1       -0.0672
     13 C          -2.1976    2.9884    0.0016 C.1     1  LIG1       -0.1138
     14 H          -2.8321    3.8500    0.0022 H       1  LIG1        0.1232
     15 C          -2.3194   -0.8299   -0.0001 C.ar    1  LIG1        0.1103
     16 C          -2.8592   -1.8156    0.7647 C.ar    1  LIG1        0.1863
     17 C          -4.2194   -1.9829    0.3493 C.ar    1  LIG1        0.1864
     18 C          -4.4515   -1.0908   -0.6499 C.ar    1  LIG1        0.1129
     19 N          -3.2908   -0.3832   -0.8673 N.ar    1  LIG1       -0.3459
     20 H          -3.1730    0.3365   -1.5428 H       1  LIG1        0.1662
     21 O          -2.2492   -2.4826    1.6992 O.3     1  LIG1       -0.5019
     22 H          -1.4311   -2.0362    1.9295 H       1  LIG1        0.2924
     23 O          -5.0772   -2.8300    0.8358 O.3     1  LIG1       -0.5019
     24 H          -4.6527   -3.6827    0.9557 H       1  LIG1        0.2924
     25 C          -5.5272   -0.8614   -1.3429 C.ar    1  LIG1        0.1131
     26 C          -6.0042   -1.4728   -2.4594 C.ar    1  LIG1        0.1889
     27 C          -7.2309   -0.8235   -2.8116 C.ar    1  LIG1        0.1865
     28 C          -7.4505    0.1551   -1.8939 C.ar    1  LIG1        0.1095
     29 N          -6.4096    0.1357   -0.9931 N.ar    1  LIG1       -0.3459
     30 H          -6.3112    0.7445   -0.2136 H       1  LIG1        0.1662
     31 O          -5.4458   -2.4634   -3.0894 O.3     1  LIG1       -0.4895
     32 C          -6.4151   -3.4890   -3.3208 C.3     1  LIG1        0.0791
     33 H          -5.9552   -4.3040   -3.8396 H       1  LIG1        0.0660
     34 H          -6.7998   -3.8342   -2.3839 H       1  LIG1        0.0660
     35 H          -7.2157   -3.0963   -3.9121 H       1  LIG1        0.0660
     36 O          -7.9964   -1.1136   -3.8216 O.3     1  LIG1       -0.5019
     37 H          -7.8642   -2.0313   -4.0705 H       1  LIG1        0.2924
     38 C          -8.4247    1.0094   -1.7884 C.ar    1  LIG1        0.0731
     39 C          -9.1492    1.6439   -2.7478 C.ar    1  LIG1        0.0180
     40 C         -10.1013    2.4806   -2.0815 C.ar    1  LIG1        0.1408
     41 C          -9.9180    2.3193   -0.7442 C.ar    1  LIG1        0.0447
     42 N          -8.8922    1.4198   -0.5603 N.ar    1  LIG1       -0.3561
     43 H          -8.5447    1.1145    0.3195 H       1  LIG1        0.1655
     44 H         -10.5352    2.8615    0.2633 H       1  LIG1        0.0844
     45 C          -9.0009    1.5137   -4.0331 C.3     1  LIG1       -0.0342
     46 H          -8.0091    1.8055   -4.3091 H       1  LIG1        0.0279
     47 H          -9.7095    2.1359   -4.5388 H       1  LIG1        0.0279
     48 H          -9.1620    0.4925   -4.3090 H       1  LIG1        0.0279
     49 O         -10.9806    3.2530   -2.6475 O.3     1  LIG1       -0.4933
     50 C         -10.4138    4.5493   -2.8554 C.3     1  LIG1        0.0789
     51 H         -11.1378    5.1846   -3.3214 H       1  LIG1        0.0660
     52 H         -10.1256    4.9678   -1.9137 H       1  LIG1        0.0660
     53 H          -9.5539    4.4656   -3.4866 H       1  LIG1        0.0660
@<TRIPOS>BOND
     1    47    45    1
     2    46    45    1
     3    48    45    1
     4    37    36    1
     5    45    39    1
     6    35    32    1
     7    33    32    1
     8    36    27    1
     9    53    50    1
    10    51    50    1
    11    32    31    1
    12    32    34    1
    13    31    26    1
    14    50    49    1
    15    50    52    1
    16    27    26   ar
    17    27    28   ar
    18    39    40   ar
    19    39    38   ar
    20    49    40    1
    21    26    25   ar
    22    40    41   ar
    23    28    38    1
    24    28    29   ar
    25    38    42   ar
    26    20    19    1
    27    25    29   ar
    28    25    18    1
    29    10     8    1
    30    29    30    1
    31    19    18   ar
    32    19    15   ar
    33    41    42   ar
    34    41    44    1
    35    18    17   ar
    36    42    43    1
    37     2     8    1
    38     2     1   ar
    39     2     3   ar
    40     4    15    1
    41     4     5   ar
    42     4     3   ar
    43     6     5    1
    44     8    11    1
    45     8     9    1
    46    15    16   ar
    47     5     1   ar
    48     1     7    1
    49     3    12    1
    50    12    13    3
    51    13    14    1
    52    17    16   ar
    53    17    23    1
    54    16    21    1
    55    23    24    1
    56    21    22    1
