@<TRIPOS>MOLECULE
mol_data/noopt/geoms/mol2/13ie13ai-13di-13ei-6la-12ae-4fd-4ei-.out
 100 107 0 0 0
SMALL
GASTEIGER

@<TRIPOS>ATOM
      1 C           1.1215   -0.3259    0.0002 C.ar    1  LIG1        0.0063
      2 C           0.7176    0.9721   -0.0005 C.ar    1  LIG1       -0.0171
      3 C          -0.7144    0.9744    0.0003 C.ar    1  LIG1        0.0542
      4 C          -1.1226   -0.3223   -0.0003 C.ar    1  LIG1        0.0787
      5 N          -0.0018   -1.1217    0.0001 N.ar    1  LIG1       -0.3583
      6 H          -0.0034   -2.1157   -0.0003 H       1  LIG1        0.1654
      7 H           2.3167   -0.8373    0.0007 H       1  LIG1        0.0810
      8 C           1.4920    2.0167   -0.0003 C.3     1  LIG1       -0.0371
      9 H           1.0026    2.8234    0.5042 H       1  LIG1        0.0278
     10 H           1.7045    2.3034   -1.0091 H       1  LIG1        0.0278
     11 H           2.4062    1.7828    0.5041 H       1  LIG1        0.0278
     12 C          -1.4853    2.0212    0.0010 C.1     1  LIG1       -0.0672
     13 C          -2.1976    2.9884    0.0016 C.1     1  LIG1       -0.1138
     14 H          -2.8321    3.8500    0.0022 H       1  LIG1        0.1232
     15 C          -2.3194   -0.8299   -0.0001 C.ar    1  LIG1        0.0648
     16 C          -3.5353   -0.2219   -0.0003 C.ar    1  LIG1       -0.0314
     17 C          -4.5290   -1.2530    0.0012 C.ar    1  LIG1       -0.0231
     18 C          -3.8767   -2.4457    0.0005 C.ar    1  LIG1        0.0676
     19 N          -2.5238   -2.1913    0.0002 N.ar    1  LIG1       -0.3516
     20 H          -1.8081   -2.8811   -0.0004 H       1  LIG1        0.1660
     21 H          -3.7520    1.0599   -0.0003 H       1  LIG1        0.0642
     22 C          -5.8182   -1.0837    0.0025 C.3     1  LIG1       -0.0376
     23 H          -6.2852   -1.9035    0.5073 H       1  LIG1        0.0278
     24 H          -6.1729   -1.0372   -1.0060 H       1  LIG1        0.0278
     25 H          -6.0576   -0.1710    0.5072 H       1  LIG1        0.0278
     26 C          -4.3398   -3.6604    0.0012 C.ar    1  LIG1        0.0815
     27 C          -5.6205   -4.1161    0.0179 C.ar    1  LIG1        0.0819
     28 C          -5.5654   -5.5470    0.0109 C.ar    1  LIG1       -0.0057
     29 C          -4.2536   -5.9029   -0.0115 C.ar    1  LIG1        0.0688
     30 N          -3.4998   -4.7509   -0.0171 N.ar    1  LIG1       -0.3506
     31 H          -2.5066   -4.7126   -0.0325 H       1  LIG1        0.1660
     32 N          -7.6424   -2.7390    0.0560 N.1     1  LIG1       -0.1908
     33 C          -6.6948   -3.3844    0.0381 C.1     1  LIG1        0.1016
     34 C          -6.5806   -6.3594    0.0232 C.3     1  LIG1       -0.0364
     35 H          -6.3095   -7.2614    0.5310 H       1  LIG1        0.0279
     36 H          -6.8665   -6.5883   -0.9822 H       1  LIG1        0.0279
     37 H          -7.4012   -5.8971    0.5309 H       1  LIG1        0.0279
     38 C          -3.6985   -7.0783   -0.0256 C.ar    1  LIG1        0.0795
     39 C          -4.2574   -8.3175   -0.0355 C.ar    1  LIG1        0.0548
     40 C          -3.1874   -9.2691   -0.0484 C.ar    1  LIG1       -0.0090
     41 C          -2.0218   -8.5696   -0.0476 C.ar    1  LIG1        0.0562
     42 N          -2.3301   -7.2280   -0.0332 N.ar    1  LIG1       -0.3517
     43 H          -1.6695   -6.4853   -0.0295 H       1  LIG1        0.1660
     44 C          -5.5295   -8.5853   -0.0321 C.1     1  LIG1       -0.0672
     45 C          -6.7049   -8.8328   -0.0290 C.1     1  LIG1       -0.1138
     46 H          -7.7520   -9.0533   -0.0263 H       1  LIG1        0.1232
     47 C          -3.3050  -10.5641   -0.0593 C.3     1  LIG1       -0.0365
     48 H          -2.4676  -11.0025    0.4421 H       1  LIG1        0.0279
     49 H          -3.3365  -10.9108   -1.0712 H       1  LIG1        0.0279
     50 H          -4.2078  -10.8444    0.4420 H       1  LIG1        0.0279
     51 C           0.2711   -8.0596   -0.0828 C.ar    1  LIG1        0.2245
     52 C          -0.7895   -8.9837   -0.0567 C.ar    1  LIG1        0.0601
     53 C          -0.4862  -10.3464   -0.0408 C.ar    1  LIG1       -0.0454
     54 C           0.8540  -10.7367   -0.0515 C.ar    1  LIG1       -0.0318
     55 C           1.8442   -9.7375   -0.0780 C.ar    1  LIG1        0.1099
     56 N           1.5695   -8.4186   -0.0934 N.ar    1  LIG1       -0.2092
     57 H          -1.2882  -11.0978   -0.0214 H       1  LIG1        0.0626
     58 O           0.0392   -6.7805   -0.0982 O.3     1  LIG1       -0.4792
     59 C           1.2804   -6.0705   -0.1040 C.3     1  LIG1        0.0804
     60 H           1.0891   -5.0178   -0.1169 H       1  LIG1        0.0660
     61 H           1.8386   -6.3208    0.7739 H       1  LIG1        0.0660
     62 H           1.8424   -6.3415   -0.9732 H       1  LIG1        0.0660
     63 H           1.1882  -11.9929   -0.0377 H       1  LIG1        0.0640
     64 C           3.1058  -10.0510   -0.0888 C.ar    1  LIG1        0.1551
     65 C           3.8269  -11.2270   -0.0821 C.ar    1  LIG1        0.0018
     66 C           5.2264  -10.8554   -0.1033 C.ar    1  LIG1        0.0711
     67 C           5.2675   -9.4765   -0.1216 C.ar    1  LIG1        0.1546
     68 O           3.9724   -8.9574   -0.1132 O.2     1  LIG1       -0.4519
     69 H           3.3666  -12.4425   -0.0610 H       1  LIG1        0.0668
     70 C           6.2298  -11.6820   -0.1045 C.1     1  LIG1       -0.0658
     71 C           7.1569  -12.4458   -0.1055 C.1     1  LIG1       -0.1138
     72 H           7.9828  -13.1261   -0.1065 H       1  LIG1        0.1232
     73 C           7.5595   -8.9756   -0.1343 C.ar    1  LIG1        0.1282
     74 C           8.5393   -7.9643   -0.1581 C.ar    1  LIG1       -0.0105
     75 C           6.2068   -8.5781   -0.1442 C.ar    1  LIG1        0.0611
     76 C           8.1900   -6.6161   -0.1910 C.ar    1  LIG1        0.0041
     77 H           9.5890   -8.2490   -0.1508 H       1  LIG1        0.0661
     78 C           5.8576   -7.2323   -0.1770 C.ar    1  LIG1       -0.0295
     79 C           6.8456   -6.2424   -0.2007 C.ar    1  LIG1        0.0604
     80 H           4.8076   -6.9512   -0.1839 H       1  LIG1        0.0639
     81 O           7.9470  -10.2162   -0.1042 O.3     1  LIG1       -0.5060
     82 H           8.9063  -10.2521   -0.0968 H       1  LIG1        0.2922
     83 N           6.2199   -3.8779   -0.2581 N.1     1  LIG1       -0.1908
     84 C           6.5131   -4.9860   -0.2312 C.1     1  LIG1        0.0998
     85 C          10.4770   -6.0931   -0.2020 C.ar    1  LIG1        0.0324
     86 C          11.4469   -5.0723   -0.2246 C.ar    1  LIG1       -0.0455
     87 C           9.1205   -5.7087   -0.2124 C.ar    1  LIG1       -0.0009
     88 C          11.0845   -3.7275   -0.2569 C.ar    1  LIG1       -0.0576
     89 H          12.4994   -5.3467   -0.2168 H       1  LIG1        0.0630
     90 C           8.7582   -4.3664   -0.2447 C.ar    1  LIG1       -0.0499
     91 C           9.7366   -3.3669   -0.2673 C.ar    1  LIG1       -0.0498
     92 H           7.7055   -4.0954   -0.2521 H       1  LIG1        0.0627
     93 H          12.0063   -2.8110   -0.2773 H       1  LIG1        0.0621
     94 C          10.8765   -7.3298   -0.1724 C.1     1  LIG1       -0.0691
     95 C          11.2457   -8.4725   -0.1451 C.1     1  LIG1       -0.1139
     96 H          11.5746   -9.4904   -0.1208 H       1  LIG1        0.1232
     97 C           9.3919   -2.1135   -0.2972 C.3     1  LIG1       -0.0397
     98 H           8.4519   -1.9901    0.1988 H       1  LIG1        0.0278
     99 H           9.3034   -1.7921   -1.3140 H       1  LIG1        0.0278
    100 H          10.1366   -1.5268    0.1988 H       1  LIG1        0.0278
@<TRIPOS>BOND
     1    99    97    1
     2    49    47    1
     3    10     8    1
     4    24    22    1
     5    36    34    1
     6    62    59    1
     7    97    91    1
     8    97   100    1
     9    97    98    1
    10    93    88    1
    11    91    88   ar
    12    91    90   ar
    13    83    84    3
    14    88    86   ar
    15    92    90    1
    16    90    87   ar
    17    84    79    1
    18    86    89    1
    19    86    85   ar
    20    87    85   ar
    21    87    76    1
    22    85    94    1
    23    79    76   ar
    24    79    78   ar
    25    76    74   ar
    26    80    78    1
    27    78    75   ar
    28    94    95    3
    29    74    77    1
    30    74    73   ar
    31    95    96    1
    32    75    73   ar
    33    75    67    1
    34    73    81    1
    35    67    68   ar
    36    67    66   ar
    37    60    59    1
    38    68    64   ar
    39    72    71    1
    40    71    70    3
    41    70    66    1
    42    81    82    1
    43    59    58    1
    44    59    61    1
    45    66    65   ar
    46    58    51    1
    47    56    51   ar
    48    56    55   ar
    49    64    65   ar
    50    64    55    1
    51    51    52   ar
    52    65    69    1
    53    55    54   ar
    54    47    40    1
    55    47    50    1
    56    47    48    1
    57    52    41    1
    58    52    53   ar
    59    54    53   ar
    60    54    63    1
    61    40    41   ar
    62    40    39   ar
    63    41    42   ar
    64    53    57    1
    65    39    44    1
    66    39    38   ar
    67    42    43    1
    68    42    38   ar
    69    31    30    1
    70    44    45    3
    71    45    46    1
    72    38    29    1
    73    30    29   ar
    74    30    26   ar
    75    29    28   ar
    76     2     8    1
    77     2     1   ar
    78     2     3   ar
    79    20    19    1
    80    16    21    1
    81    16    15   ar
    82    16    17   ar
    83     8    11    1
    84     8     9    1
    85     6     5    1
    86     4    15    1
    87     4     5   ar
    88     4     3   ar
    89    15    19   ar
    90     5     1   ar
    91    19    18   ar
    92     1     7    1
    93     3    12    1
    94    18    17   ar
    95    18    26    1
    96    12    13    3
    97    17    22    1
    98    26    27   ar
    99    13    14    1
   100    22    25    1
   101    22    23    1
   102    28    27   ar
   103    28    34    1
   104    27    33    1
   105    34    37    1
   106    34    35    1
   107    33    32    3
