@<TRIPOS>MOLECULE
mol_data/noopt/geoms/mol2/13ie12ef(170)6li(340)4eh(180).out
 55 58 0 0 0
SMALL
GASTEIGER

@<TRIPOS>ATOM
      1 C           1.1215   -0.3259    0.0002 C.ar    1  LIG1        0.0064
      2 C           0.7176    0.9721   -0.0005 C.ar    1  LIG1       -0.0171
      3 C          -0.7144    0.9744    0.0003 C.ar    1  LIG1        0.0558
      4 C          -1.1226   -0.3223   -0.0003 C.ar    1  LIG1        0.0993
      5 N          -0.0018   -1.1217    0.0001 N.ar    1  LIG1       -0.3570
      6 H          -0.0034   -2.1157   -0.0003 H       1  LIG1        0.1655
      7 H           2.3167   -0.8373    0.0007 H       1  LIG1        0.0810
      8 C           1.4920    2.0167   -0.0003 C.3     1  LIG1       -0.0371
      9 H           1.0026    2.8234    0.5042 H       1  LIG1        0.0278
     10 H           1.7045    2.3034   -1.0091 H       1  LIG1        0.0278
     11 H           2.4062    1.7828    0.5041 H       1  LIG1        0.0278
     12 C          -1.4853    2.0212    0.0010 C.1     1  LIG1       -0.0672
     13 C          -2.1976    2.9884    0.0016 C.1     1  LIG1       -0.1138
     14 H          -2.8321    3.8500    0.0022 H       1  LIG1        0.1232
     15 C          -2.3194   -0.8299   -0.0001 C.ar    1  LIG1        0.1720
     16 C          -2.8514   -2.0941    0.1478 C.ar    1  LIG1        0.1139
     17 C          -4.2887   -1.9543    0.0414 C.ar    1  LIG1        0.1792
     18 C          -4.5399   -0.6133   -0.1644 C.ar    1  LIG1        0.1833
     19 O          -3.3414    0.1005   -0.1938 O.2     1  LIG1       -0.4481
     20 C          -2.2116   -3.2085    0.3447 C.1     1  LIG1       -0.0621
     21 C          -1.6205   -4.2382    0.5267 C.1     1  LIG1       -0.1137
     22 H          -1.0939   -5.1555    0.6888 H       1  LIG1        0.1232
     23 O          -5.1525   -2.9221    0.1271 O.3     1  LIG1       -0.5024
     24 H          -4.6902   -3.7632    0.1482 H       1  LIG1        0.2923
     25 C          -6.8742   -0.3983   -0.0122 C.ar    1  LIG1        0.2261
     26 C          -5.6038    0.1147   -0.3320 C.ar    1  LIG1        0.0827
     27 C          -5.5162    1.4160   -0.8300 C.ar    1  LIG1       -0.0409
     28 C          -6.6899    2.1545   -0.9904 C.ar    1  LIG1       -0.0235
     29 C          -7.9139    1.5541   -0.6425 C.ar    1  LIG1        0.0790
     30 N          -8.0166    0.3001   -0.1607 N.ar    1  LIG1       -0.2120
     31 H          -4.5411    1.8505   -1.0918 H       1  LIG1        0.0630
     32 O          -7.0068   -1.6044    0.4546 O.3     1  LIG1       -0.4792
     33 C          -8.3954   -1.8999    0.6258 C.3     1  LIG1        0.0804
     34 H          -8.5041   -2.8927    1.0098 H       1  LIG1        0.0660
     35 H          -8.8263   -1.2024    1.3134 H       1  LIG1        0.0660
     36 H          -8.8949   -1.8257   -0.3175 H       1  LIG1        0.0660
     37 C          -6.6616    3.3703   -1.4505 C.3     1  LIG1       -0.0377
     38 H          -7.5230    3.9027   -1.1049 H       1  LIG1        0.0278
     39 H          -6.6622    3.3470   -2.5203 H       1  LIG1        0.0278
     40 H          -5.7762    3.8618   -1.1049 H       1  LIG1        0.0278
     41 C         -10.2503    1.4925   -0.8457 C.ar    1  LIG1        0.0340
     42 C         -11.4356    2.2394   -0.9894 C.ar    1  LIG1       -0.0440
     43 C          -9.0336    2.2012   -0.7739 C.ar    1  LIG1        0.0178
     44 C         -11.4128    3.6305   -1.0583 C.ar    1  LIG1       -0.0399
     45 H         -12.3854    1.7124   -1.0470 H       1  LIG1        0.0630
     46 C          -9.0104    3.5900   -0.8426 C.ar    1  LIG1       -0.0307
     47 C         -10.1986    4.3142   -0.9850 C.ar    1  LIG1        0.0252
     48 H          -8.0595    4.1136   -0.7851 H       1  LIG1        0.0643
     49 H         -12.5261    4.2885   -1.1909 H       1  LIG1        0.0636
     50 C         -10.3353    0.1966   -0.7869 C.1     1  LIG1       -0.0690
     51 C         -10.4139   -1.0008   -0.7327 C.1     1  LIG1       -0.1139
     52 H         -10.4838   -2.0674   -0.6843 H       1  LIG1        0.1232
     53 N         -10.1706    5.6124   -1.0489 N.pl3   1  LIG1       -0.3579
     54 H          -9.3476    5.9045   -1.5361 H       1  LIG1        0.1423
     55 H         -10.9802    5.9397   -1.5361 H       1  LIG1        0.1423
@<TRIPOS>BOND
     1    39    37    1
     2    55    53    1
     3    54    53    1
     4    37    40    1
     5    37    38    1
     6    37    28    1
     7    49    44    1
     8    31    27    1
     9    44    42   ar
    10    44    47   ar
    11    53    47    1
    12    45    42    1
    13    10     8    1
    14    28    27   ar
    15    28    29   ar
    16    42    41   ar
    17    47    46   ar
    18    41    50    1
    19    41    43   ar
    20    46    48    1
    21    46    43   ar
    22    27    26   ar
    23    50    51    3
    24    43    29    1
    25    51    52    1
    26    29    30   ar
    27    26    18    1
    28    26    25   ar
    29    36    33    1
    30    19    18   ar
    31    19    15   ar
    32    18    17   ar
    33    30    25   ar
    34    25    32    1
    35     2     8    1
    36     2     1   ar
    37     2     3   ar
    38     4    15    1
    39     4     5   ar
    40     4     3   ar
    41     8    11    1
    42     8     9    1
    43     6     5    1
    44    15    16   ar
    45     5     1   ar
    46     1     7    1
    47     3    12    1
    48    12    13    3
    49    13    14    1
    50    17    23    1
    51    17    16   ar
    52    23    24    1
    53    16    20    1
    54    20    21    3
    55    32    33    1
    56    21    22    1
    57    33    34    1
    58    33    35    1
