@<TRIPOS>MOLECULE
mol_data/noopt/geoms/mol2/13ie6if-4dd4il.out
 57 60 0 0 0
SMALL
GASTEIGER

@<TRIPOS>ATOM
      1 C           1.1215   -0.3259    0.0002 C.ar    1  LIG1        0.0063
      2 C           0.7176    0.9721   -0.0005 C.ar    1  LIG1       -0.0172
      3 C          -0.7144    0.9744    0.0003 C.ar    1  LIG1        0.0528
      4 C          -1.1226   -0.3223   -0.0003 C.ar    1  LIG1        0.0641
      5 N          -0.0018   -1.1217    0.0001 N.ar    1  LIG1       -0.3594
      6 H          -0.0034   -2.1157   -0.0003 H       1  LIG1        0.1654
      7 H           2.3167   -0.8373    0.0007 H       1  LIG1        0.0810
      8 C           1.4920    2.0167   -0.0003 C.3     1  LIG1       -0.0371
      9 H           1.0026    2.8234    0.5042 H       1  LIG1        0.0278
     10 H           1.7045    2.3034   -1.0091 H       1  LIG1        0.0278
     11 H           2.4062    1.7828    0.5041 H       1  LIG1        0.0278
     12 C          -1.4853    2.0212    0.0010 C.1     1  LIG1       -0.0673
     13 C          -2.1976    2.9884    0.0016 C.1     1  LIG1       -0.1138
     14 H          -2.8321    3.8500    0.0022 H       1  LIG1        0.1232
     15 C          -2.5002   -2.2250   -0.0210 C.ar    1  LIG1        0.0483
     16 C          -2.3194   -0.8299   -0.0001 C.ar    1  LIG1        0.0240
     17 C          -3.4501   -0.0114    0.0210 C.ar    1  LIG1       -0.0072
     18 C          -4.7120   -0.6083    0.0204 C.ar    1  LIG1        0.1434
     19 C          -4.7903   -2.0130   -0.0016 C.ar    1  LIG1        0.1138
     20 N          -3.7099   -2.8177   -0.0220 N.ar    1  LIG1       -0.2475
     21 H          -3.3484    1.0830    0.0367 H       1  LIG1        0.0662
     22 C          -1.4780   -3.0285   -0.0410 C.3     1  LIG1       -0.0217
     23 H          -0.6516   -2.5669    0.4579 H       1  LIG1        0.0293
     24 H          -1.2098   -3.2393   -1.0552 H       1  LIG1        0.0293
     25 H          -1.7315   -3.9405    0.4578 H       1  LIG1        0.0293
     26 O          -5.7953    0.1100    0.0393 O.3     1  LIG1       -0.5046
     27 H          -6.5625   -0.4671    0.0440 H       1  LIG1        0.2922
     28 C          -7.1312   -1.8574   -0.0031 C.ar    1  LIG1        0.0617
     29 C          -8.3535   -2.5570   -0.0031 C.ar    1  LIG1       -0.0347
     30 C          -5.9423   -2.6153   -0.0030 C.ar    1  LIG1        0.0225
     31 C          -8.3926   -3.9495   -0.0037 C.ar    1  LIG1        0.0011
     32 H          -9.2828   -1.9918   -0.0029 H       1  LIG1        0.0637
     33 C          -5.9808   -4.0055   -0.0037 C.ar    1  LIG1       -0.0332
     34 C          -7.2050   -4.6822   -0.0041 C.ar    1  LIG1        0.0602
     35 H          -5.0503   -4.5673   -0.0035 H       1  LIG1        0.0637
     36 N          -7.1830    0.5886   -0.0025 N.1     1  LIG1       -0.1908
     37 C          -7.1587   -0.5577   -0.0027 C.1     1  LIG1        0.0998
     38 N          -7.2611   -7.1281   -0.0049 N.1     1  LIG1       -0.1908
     39 C          -7.2348   -5.9818   -0.0045 C.1     1  LIG1        0.0998
     40 C         -10.7349   -3.8167   -0.0031 C.ar    1  LIG1       -0.0425
     41 C         -11.9503   -4.5281   -0.0018 C.ar    1  LIG1       -0.0548
     42 C          -9.5387   -4.5630   -0.0038 C.ar    1  LIG1       -0.0103
     43 C         -11.9759   -5.9209   -0.0017 C.ar    1  LIG1       -0.0197
     44 H         -12.8851   -3.9720   -0.0010 H       1  LIG1        0.0622
     45 C          -9.5637   -5.9535   -0.0038 C.ar    1  LIG1       -0.0120
     46 C         -10.7813   -6.6420   -0.0028 C.ar    1  LIG1        0.1207
     47 H          -8.6278   -6.5063   -0.0042 H       1  LIG1        0.0660
     48 H         -13.1161   -6.5455   -0.0005 H       1  LIG1        0.0654
     49 C         -10.7750   -2.5170   -0.0034 C.3     1  LIG1       -0.0391
     50 H         -11.6593   -2.1874    0.5009 H       1  LIG1        0.0278
     51 H         -10.7861   -2.1607   -1.0123 H       1  LIG1        0.0278
     52 H          -9.9128   -2.1335    0.5009 H       1  LIG1        0.0278
     53 O         -10.7985   -7.9420   -0.0026 O.3     1  LIG1       -0.4951
     54 C         -12.1527   -8.4014   -0.0026 C.3     1  LIG1        0.0788
     55 H         -12.1664   -9.4713   -0.0026 H       1  LIG1        0.0660
     56 H         -12.6525   -8.0383    0.8711 H       1  LIG1        0.0660
     57 H         -12.6525   -8.0383   -0.8762 H       1  LIG1        0.0660
@<TRIPOS>BOND
     1    24    22    1
     2    51    49    1
     3    10     8    1
     4    57    54    1
     5    22    15    1
     6    22    25    1
     7    22    23    1
     8    20    15   ar
     9    20    19   ar
    10    15    16   ar
    11    38    39    3
    12    39    34    1
    13    47    45    1
    14    34    31   ar
    15    34    33   ar
    16    42    45   ar
    17    42    31    1
    18    42    40   ar
    19    45    46   ar
    20    31    29   ar
    21    33    35    1
    22    33    30   ar
    23    49    40    1
    24    49    52    1
    25    49    50    1
    26    40    41   ar
    27    29    28   ar
    28    29    32    1
    29    28    30   ar
    30    28    37    1
    31    30    19    1
    32    46    53    1
    33    46    43   ar
    34    37    36    3
    35    53    54    1
    36    54    55    1
    37    54    56    1
    38    41    43   ar
    39    41    44    1
    40    43    48    1
    41    19    18   ar
    42     2     8    1
    43     2     1   ar
    44     2     3   ar
    45     8    11    1
    46     8     9    1
    47     6     5    1
    48     4    16    1
    49     4     5   ar
    50     4     3   ar
    51    16    17   ar
    52     5     1   ar
    53     1     7    1
    54     3    12    1
    55    12    13    3
    56    13    14    1
    57    18    17   ar
    58    18    26    1
    59    17    21    1
    60    26    27    1
