@<TRIPOS>MOLECULE
mol_data/noopt/geoms/mol2/13if13if-13if.out
 38 40 0 0 0
SMALL
GASTEIGER

@<TRIPOS>ATOM
      1 C           1.1215   -0.3259    0.0002 C.ar    1  LIG1        0.0087
      2 C           0.7176    0.9721   -0.0005 C.ar    1  LIG1        0.0090
      3 C          -0.7144    0.9744    0.0003 C.ar    1  LIG1        0.1463
      4 C          -1.1226   -0.3223   -0.0003 C.ar    1  LIG1        0.1055
      5 N          -0.0018   -1.1217    0.0001 N.ar    1  LIG1       -0.3563
      6 H          -0.0034   -2.1157   -0.0003 H       1  LIG1        0.1655
      7 H           2.3167   -0.8373    0.0007 H       1  LIG1        0.0811
      8 C           1.4920    2.0167   -0.0003 C.3     1  LIG1       -0.0348
      9 H           1.0026    2.8234    0.5042 H       1  LIG1        0.0279
     10 H           1.7045    2.3034   -1.0091 H       1  LIG1        0.0279
     11 H           2.4062    1.7828    0.5041 H       1  LIG1        0.0279
     12 O          -1.4853    2.0212    0.0010 O.3     1  LIG1       -0.5043
     13 H          -2.4040    1.7426    0.0012 H       1  LIG1        0.2922
     14 C          -2.3194   -0.8299   -0.0001 C.ar    1  LIG1        0.0735
     15 C          -2.7274   -2.1266   -0.0005 C.ar    1  LIG1        0.0185
     16 C          -4.1594   -2.1244    0.0011 C.ar    1  LIG1        0.1470
     17 C          -4.5635   -0.8264    0.0006 C.ar    1  LIG1        0.1060
     18 N          -3.4402   -0.0305    0.0003 N.ar    1  LIG1       -0.3486
     19 H          -3.4386    0.9635   -0.0001 H       1  LIG1        0.1661
     20 C          -1.9564   -3.1736   -0.0006 C.3     1  LIG1       -0.0342
     21 H          -1.0413   -2.9428    0.5038 H       1  LIG1        0.0279
     22 H          -1.7448   -3.4607   -1.0095 H       1  LIG1        0.0279
     23 H          -2.4483   -3.9789    0.5037 H       1  LIG1        0.0279
     24 O          -4.9337   -3.1687    0.0023 O.3     1  LIG1       -0.5043
     25 H          -4.3975   -3.9651    0.0026 H       1  LIG1        0.2922
     26 C          -5.7587   -0.3150    0.0014 C.ar    1  LIG1        0.0730
     27 C          -6.1626    0.9830    0.0016 C.ar    1  LIG1        0.0178
     28 C          -7.5946    0.9853    0.0038 C.ar    1  LIG1        0.1376
     29 C          -8.0028   -0.3114    0.0030 C.ar    1  LIG1        0.0445
     30 N          -6.8820   -1.1108    0.0021 N.ar    1  LIG1       -0.3561
     31 H          -6.8836   -2.1048    0.0013 H       1  LIG1        0.1655
     32 H          -9.1996   -0.8190    0.0041 H       1  LIG1        0.0844
     33 C          -5.3882    2.0276    0.0015 C.3     1  LIG1       -0.0342
     34 H          -5.8776    2.8344    0.5059 H       1  LIG1        0.0279
     35 H          -5.1759    2.3141   -1.0073 H       1  LIG1        0.0279
     36 H          -4.4739    1.7938    0.5059 H       1  LIG1        0.0279
     37 O          -8.3655    2.0321    0.0056 O.3     1  LIG1       -0.5050
     38 H          -9.2842    1.7535    0.0060 H       1  LIG1        0.2922
@<TRIPOS>BOND
     1    22    20    1
     2    10     8    1
     3    35    33    1
     4    20    15    1
     5    20    23    1
     6    20    21    1
     7     2     8    1
     8     2     1   ar
     9     2     3   ar
    10    15    14   ar
    11    15    16   ar
    12     4    14    1
    13     4     5   ar
    14     4     3   ar
    15     6     5    1
    16     8    11    1
    17     8     9    1
    18    19    18    1
    19    14    18   ar
    20     5     1   ar
    21     1     7    1
    22     3    12    1
    23    18    17   ar
    24    17    16   ar
    25    17    26    1
    26    12    13    1
    27    16    24    1
    28    31    30    1
    29    26    27   ar
    30    26    30   ar
    31    33    27    1
    32    33    36    1
    33    33    34    1
    34    27    28   ar
    35    30    29   ar
    36    24    25    1
    37    29    28   ar
    38    29    32    1
    39    28    37    1
    40    37    38    1
