@<TRIPOS>MOLECULE
mol_data/noopt/geoms/mol2/13if13if13if13if.out
 50 53 0 0 0
SMALL
GASTEIGER

@<TRIPOS>ATOM
      1 C           1.1215   -0.3259    0.0002 C.ar    1  LIG1        0.0087
      2 C           0.7176    0.9721   -0.0005 C.ar    1  LIG1        0.0090
      3 C          -0.7144    0.9744    0.0003 C.ar    1  LIG1        0.1463
      4 C          -1.1226   -0.3223   -0.0003 C.ar    1  LIG1        0.1055
      5 N          -0.0018   -1.1217    0.0001 N.ar    1  LIG1       -0.3563
      6 H          -0.0034   -2.1157   -0.0003 H       1  LIG1        0.1655
      7 H           2.3167   -0.8373    0.0007 H       1  LIG1        0.0811
      8 C           1.4920    2.0167   -0.0003 C.3     1  LIG1       -0.0348
      9 H           1.0026    2.8234    0.5042 H       1  LIG1        0.0279
     10 H           1.7045    2.3034   -1.0091 H       1  LIG1        0.0279
     11 H           2.4062    1.7828    0.5041 H       1  LIG1        0.0279
     12 O          -1.4853    2.0212    0.0010 O.3     1  LIG1       -0.5043
     13 H          -2.4040    1.7426    0.0012 H       1  LIG1        0.2922
     14 C          -2.3194   -0.8299   -0.0001 C.ar    1  LIG1        0.0735
     15 C          -3.5353   -0.2219   -0.0003 C.ar    1  LIG1        0.0185
     16 C          -4.5290   -1.2530    0.0012 C.ar    1  LIG1        0.1470
     17 C          -3.8767   -2.4457    0.0005 C.ar    1  LIG1        0.1060
     18 N          -2.5238   -2.1913    0.0002 N.ar    1  LIG1       -0.3486
     19 H          -1.8081   -2.8811   -0.0004 H       1  LIG1        0.1661
     20 C          -3.7520    1.0602   -0.0003 C.3     1  LIG1       -0.0342
     21 H          -4.6729    1.2662    0.5041 H       1  LIG1        0.0279
     22 H          -3.8116    1.4119   -1.0091 H       1  LIG1        0.0279
     23 H          -2.9500    1.5575    0.5041 H       1  LIG1        0.0279
     24 O          -5.8180   -1.0837    0.0025 O.3     1  LIG1       -0.5043
     25 H          -6.2535   -1.9392    0.0028 H       1  LIG1        0.2922
     26 C          -4.3398   -3.6604    0.0012 C.ar    1  LIG1        0.0735
     27 C          -5.6206   -4.1160    0.0013 C.ar    1  LIG1        0.0185
     28 C          -5.5655   -5.5470    0.0033 C.ar    1  LIG1        0.1470
     29 C          -4.2535   -5.9029    0.0026 C.ar    1  LIG1        0.1060
     30 N          -3.4996   -4.7510    0.0018 N.ar    1  LIG1       -0.3486
     31 H          -2.5064   -4.7127    0.0010 H       1  LIG1        0.1661
     32 C          -6.6953   -3.3841    0.0012 C.3     1  LIG1       -0.0342
     33 H          -7.4819   -3.9054    0.5056 H       1  LIG1        0.0279
     34 H          -6.9901   -3.1834   -1.0076 H       1  LIG1        0.0279
     35 H          -6.4984   -2.4612    0.5056 H       1  LIG1        0.0279
     36 O          -6.5806   -6.3592    0.0050 O.3     1  LIG1       -0.5043
     37 H          -6.2653   -7.2660    0.0054 H       1  LIG1        0.2922
     38 C          -3.6983   -7.0784    0.0036 C.ar    1  LIG1        0.0730
     39 C          -4.2571   -8.3176    0.0039 C.ar    1  LIG1        0.0178
     40 C          -3.1870   -9.2693    0.0063 C.ar    1  LIG1        0.1376
     41 C          -2.0214   -8.5697    0.0055 C.ar    1  LIG1        0.0445
     42 N          -2.3298   -7.2280    0.0043 N.ar    1  LIG1       -0.3561
     43 H          -1.6693   -6.4852    0.0035 H       1  LIG1        0.1655
     44 H          -0.7891   -8.9837    0.0068 H       1  LIG1        0.0844
     45 C          -5.5295   -8.5856    0.0038 C.3     1  LIG1       -0.0342
     46 H          -5.6985   -9.5140    0.5082 H       1  LIG1        0.0279
     47 H          -5.8784   -8.6592   -1.0051 H       1  LIG1        0.0279
     48 H          -6.0586   -7.8042    0.5081 H       1  LIG1        0.0279
     49 O          -3.3045  -10.5640    0.0083 O.3     1  LIG1       -0.5050
     50 H          -2.4322  -10.9649    0.0088 H       1  LIG1        0.2922
@<TRIPOS>BOND
     1    22    20    1
     2    10     8    1
     3    34    32    1
     4    47    45    1
     5     2     8    1
     6     2     1   ar
     7     2     3   ar
     8    19    18    1
     9    15    20    1
    10    15    14   ar
    11    15    16   ar
    12     4    14    1
    13     4     5   ar
    14     4     3   ar
    15     6     5    1
    16     8    11    1
    17     8     9    1
    18    20    23    1
    19    20    21    1
    20    14    18   ar
    21     5     1   ar
    22    18    17   ar
    23     1     7    1
    24     3    12    1
    25    17    16   ar
    26    17    26    1
    27    31    30    1
    28    12    13    1
    29    16    24    1
    30    26    27   ar
    31    26    30   ar
    32    32    27    1
    33    32    35    1
    34    32    33    1
    35    27    28   ar
    36    30    29   ar
    37    24    25    1
    38    29    28   ar
    39    29    38    1
    40    28    36    1
    41    43    42    1
    42    38    39   ar
    43    38    42   ar
    44    45    39    1
    45    45    48    1
    46    45    46    1
    47    39    40   ar
    48    42    41   ar
    49    36    37    1
    50    41    40   ar
    51    41    44    1
    52    40    49    1
    53    49    50    1
