@<TRIPOS>MOLECULE
mol_data/noopt/geoms/mol2/13if13if13if.out
 38 40 0 0 0
SMALL
GASTEIGER

@<TRIPOS>ATOM
      1 C           1.1215   -0.3259    0.0002 C.ar    1  LIG1        0.0087
      2 C           0.7176    0.9721   -0.0005 C.ar    1  LIG1        0.0090
      3 C          -0.7144    0.9744    0.0003 C.ar    1  LIG1        0.1463
      4 C          -1.1226   -0.3223   -0.0003 C.ar    1  LIG1        0.1055
      5 N          -0.0018   -1.1217    0.0001 N.ar    1  LIG1       -0.3563
      6 H          -0.0034   -2.1157   -0.0003 H       1  LIG1        0.1655
      7 H           2.3167   -0.8373    0.0007 H       1  LIG1        0.0811
      8 C           1.4920    2.0167   -0.0003 C.3     1  LIG1       -0.0348
      9 H           1.0026    2.8234    0.5042 H       1  LIG1        0.0279
     10 H           1.7045    2.3034   -1.0091 H       1  LIG1        0.0279
     11 H           2.4062    1.7828    0.5041 H       1  LIG1        0.0279
     12 O          -1.4853    2.0212    0.0010 O.3     1  LIG1       -0.5043
     13 H          -2.4040    1.7426    0.0012 H       1  LIG1        0.2922
     14 C          -2.3194   -0.8299   -0.0001 C.ar    1  LIG1        0.0735
     15 C          -3.5353   -0.2219   -0.0003 C.ar    1  LIG1        0.0185
     16 C          -4.5290   -1.2530    0.0012 C.ar    1  LIG1        0.1470
     17 C          -3.8767   -2.4457    0.0005 C.ar    1  LIG1        0.1060
     18 N          -2.5238   -2.1913    0.0002 N.ar    1  LIG1       -0.3486
     19 H          -1.8081   -2.8811   -0.0004 H       1  LIG1        0.1661
     20 C          -3.7520    1.0602   -0.0003 C.3     1  LIG1       -0.0342
     21 H          -4.6729    1.2662    0.5041 H       1  LIG1        0.0279
     22 H          -3.8116    1.4119   -1.0091 H       1  LIG1        0.0279
     23 H          -2.9500    1.5575    0.5041 H       1  LIG1        0.0279
     24 O          -5.8180   -1.0837    0.0025 O.3     1  LIG1       -0.5043
     25 H          -6.2535   -1.9392    0.0028 H       1  LIG1        0.2922
     26 C          -4.3398   -3.6604    0.0012 C.ar    1  LIG1        0.0730
     27 C          -5.6206   -4.1160    0.0013 C.ar    1  LIG1        0.0178
     28 C          -5.5655   -5.5470    0.0033 C.ar    1  LIG1        0.1376
     29 C          -4.2535   -5.9029    0.0026 C.ar    1  LIG1        0.0445
     30 N          -3.4996   -4.7510    0.0018 N.ar    1  LIG1       -0.3561
     31 H          -2.5064   -4.7127    0.0010 H       1  LIG1        0.1655
     32 H          -3.6983   -7.0784    0.0036 H       1  LIG1        0.0844
     33 C          -6.6953   -3.3841    0.0012 C.3     1  LIG1       -0.0342
     34 H          -7.4819   -3.9054    0.5056 H       1  LIG1        0.0279
     35 H          -6.9901   -3.1834   -1.0076 H       1  LIG1        0.0279
     36 H          -6.4984   -2.4612    0.5056 H       1  LIG1        0.0279
     37 O          -6.5806   -6.3592    0.0050 O.3     1  LIG1       -0.5050
     38 H          -6.2653   -7.2660    0.0054 H       1  LIG1        0.2922
@<TRIPOS>BOND
     1    22    20    1
     2    10     8    1
     3    35    33    1
     4     2     8    1
     5     2     1   ar
     6     2     3   ar
     7    19    18    1
     8    15    20    1
     9    15    14   ar
    10    15    16   ar
    11     4    14    1
    12     4     5   ar
    13     4     3   ar
    14     6     5    1
    15     8    11    1
    16     8     9    1
    17    20    23    1
    18    20    21    1
    19    14    18   ar
    20     5     1   ar
    21    18    17   ar
    22     1     7    1
    23     3    12    1
    24    17    16   ar
    25    17    26    1
    26    31    30    1
    27    12    13    1
    28    16    24    1
    29    26    27   ar
    30    26    30   ar
    31    33    27    1
    32    33    36    1
    33    33    34    1
    34    27    28   ar
    35    30    29   ar
    36    24    25    1
    37    29    28   ar
    38    29    32    1
    39    28    37    1
    40    37    38    1
