@<TRIPOS>MOLECULE
mol_data/noopt/geoms/mol2/13if4ah-12al-13ef6fl-4ia-6ha-6hf-.out
 98 104 0 0 0
SMALL
GASTEIGER

@<TRIPOS>ATOM
      1 C           1.1215   -0.3259    0.0002 C.ar    1  LIG1        0.0087
      2 C           0.7176    0.9721   -0.0005 C.ar    1  LIG1        0.0089
      3 C          -0.7144    0.9744    0.0003 C.ar    1  LIG1        0.1449
      4 C          -1.1226   -0.3223   -0.0003 C.ar    1  LIG1        0.0888
      5 N          -0.0018   -1.1217    0.0001 N.ar    1  LIG1       -0.3575
      6 H          -0.0034   -2.1157   -0.0003 H       1  LIG1        0.1655
      7 H           2.3167   -0.8373    0.0007 H       1  LIG1        0.0811
      8 C           1.4920    2.0167   -0.0003 C.3     1  LIG1       -0.0348
      9 H           1.0026    2.8234    0.5042 H       1  LIG1        0.0279
     10 H           1.7045    2.3034   -1.0091 H       1  LIG1        0.0279
     11 H           2.4062    1.7828    0.5041 H       1  LIG1        0.0279
     12 O          -1.4853    2.0212    0.0010 O.3     1  LIG1       -0.5044
     13 H          -2.4040    1.7426    0.0012 H       1  LIG1        0.2922
     14 C          -3.4433    0.0211    0.0221 C.ar    1  LIG1       -0.0517
     15 C          -4.7179   -0.5778    0.0229 C.ar    1  LIG1       -0.0487
     16 C          -2.3194   -0.8299   -0.0001 C.ar    1  LIG1        0.0036
     17 C          -4.8691   -1.9625    0.0019 C.ar    1  LIG1        0.0380
     18 H          -5.5986    0.0603    0.0400 H       1  LIG1        0.0625
     19 C          -2.4698   -2.2123   -0.0211 C.ar    1  LIG1       -0.0311
     20 C          -3.7445   -2.7882   -0.0203 C.ar    1  LIG1        0.0360
     21 H          -1.5876   -2.8471   -0.0379 H       1  LIG1        0.0643
     22 H          -3.3660    1.3186    0.0420 H       1  LIG1        0.0624
     23 N          -3.8789   -4.0811   -0.0398 N.pl3   1  LIG1       -0.3574
     24 H          -4.7248   -4.3211   -0.5161 H       1  LIG1        0.1423
     25 H          -3.1006   -4.4900   -0.5162 H       1  LIG1        0.1423
     26 C          -6.0610   -2.4817    0.0032 C.ar    1  LIG1        0.1412
     27 C          -7.3489   -1.9875    0.0042 C.ar    1  LIG1        0.0268
     28 C          -8.2332   -3.1342    0.0054 C.ar    1  LIG1        0.1677
     29 C          -7.4266   -4.2536    0.0050 C.ar    1  LIG1        0.1944
     30 O          -6.0830   -3.8771    0.0036 O.2     1  LIG1       -0.4495
     31 H          -7.7235   -0.7426    0.0041 H       1  LIG1        0.0692
     32 O          -9.5325   -3.0890    0.0066 O.3     1  LIG1       -0.4912
     33 C          -9.9626   -1.7253    0.0069 C.3     1  LIG1        0.0790
     34 H         -11.0320   -1.6886    0.0077 H       1  LIG1        0.0660
     35 H          -9.5882   -1.2334    0.8804 H       1  LIG1        0.0660
     36 H          -9.5895   -1.2333   -0.8669 H       1  LIG1        0.0660
     37 C          -7.6251   -5.5383    0.0057 C.ar    1  LIG1        0.1054
     38 C          -8.7821   -6.2519    0.0058 C.ar    1  LIG1        0.0950
     39 C          -8.4287   -7.6396    0.0078 C.ar    1  LIG1        0.1583
     40 C          -7.0712   -7.7130    0.0071 C.ar    1  LIG1        0.0955
     41 N          -6.5752   -6.4288    0.0063 N.ar    1  LIG1       -0.3476
     42 H          -5.6120   -6.1835    0.0055 H       1  LIG1        0.1661
     43 C          -9.9860   -5.7614    0.0057 C.1     1  LIG1       -0.0637
     44 C         -11.0984   -5.3081    0.0057 C.1     1  LIG1       -0.1137
     45 H         -12.0893   -4.9043    0.0056 H       1  LIG1        0.1232
     46 O          -9.2512   -8.6464    0.0095 O.3     1  LIG1       -0.5035
     47 H          -8.7532   -9.4671    0.0100 H       1  LIG1        0.2923
     48 C          -4.8860   -8.5749   -0.0123 C.ar    1  LIG1        0.2225
     49 C          -6.2823   -8.7462    0.0081 C.ar    1  LIG1        0.0667
     50 C          -6.7944  -10.0448    0.0297 C.ar    1  LIG1       -0.0037
     51 C          -5.9027  -11.1189    0.0299 C.ar    1  LIG1        0.1436
     52 C          -4.5226  -10.8459    0.0083 C.ar    1  LIG1        0.1163
     53 N          -4.0114   -9.5995   -0.0124 N.ar    1  LIG1       -0.2088
     54 H          -7.8797  -10.2181    0.0450 H       1  LIG1        0.0663
     55 O          -4.3616   -7.3854   -0.0327 O.3     1  LIG1       -0.4919
     56 H          -5.0604   -6.7272   -0.0378 H       1  LIG1        0.2937
     57 O          -6.3295  -12.3467    0.0493 O.3     1  LIG1       -0.5046
     58 C          -7.7595  -12.3549    0.0564 C.3     2  LIG2       -0.0681
     59 H          -8.1103  -13.3656    0.0722 H       1  LIG1        0.0227
     60 H          -8.1148  -11.8404    0.9247 H       1  LIG1        0.0227
     61 H          -8.1233  -11.8648   -0.8224 H       1  LIG1        0.0227
     62 C          -4.0917  -13.1519    0.0295 C.ar    1  LIG1       -0.0372
     63 C          -3.1105  -14.1621    0.0294 C.ar    1  LIG1       -0.0501
     64 C          -3.6531  -11.8122    0.0077 C.ar    1  LIG1        0.0073
     65 C          -1.7521  -13.8543    0.0080 C.ar    1  LIG1       -0.0143
     66 H          -3.4271  -15.2027    0.0462 H       1  LIG1        0.0627
     67 C          -2.2970  -11.5044   -0.0137 C.ar    1  LIG1       -0.0516
     68 C          -1.3375  -12.5221   -0.0138 C.ar    1  LIG1       -0.0533
     69 H          -1.9840  -10.4635   -0.0301 H       1  LIG1        0.0624
     70 C          -5.3440  -13.5014    0.0497 C.3     1  LIG1       -0.0230
     71 H          -5.4452  -14.4366    0.5597 H       1  LIG1        0.0317
     72 H          -5.7027  -13.6015   -0.9534 H       1  LIG1        0.0317
     73 H          -5.9148  -12.7536    0.5596 H       1  LIG1        0.2922
     74 H          -0.0713  -12.2283   -0.0337 H       1  LIG1        0.0624
     75 C           0.5020  -14.5155   -0.0123 C.ar    1  LIG1        0.1246
     76 C          -0.8731  -14.8122    0.0085 C.ar    1  LIG1        0.0217
     77 C          -1.2659  -16.1517    0.0297 C.ar    1  LIG1       -0.0487
     78 C          -0.2810  -17.1409    0.0294 C.ar    1  LIG1       -0.0349
     79 C           1.0688  -16.7445    0.0075 C.ar    1  LIG1        0.0765
     80 N           1.4655  -15.4571   -0.0130 N.ar    1  LIG1       -0.2317
     81 H          -2.3312  -16.4221    0.0453 H       1  LIG1        0.0625
     82 N           0.9169  -13.2837   -0.0324 N.pl3   1  LIG1       -0.3426
     83 H           1.7948  -13.2354   -0.5089 H       1  LIG1        0.1437
     84 H           0.2472  -12.7141   -0.5090 H       1  LIG1        0.1437
     85 H          -0.5953  -18.4022    0.0485 H       1  LIG1        0.0639
     86 C           3.3688  -17.2220   -0.0153 C.ar    1  LIG1        0.1256
     87 C           2.0220  -17.6285    0.0063 C.ar    1  LIG1        0.0434
     88 C           1.7384  -18.9953    0.0267 C.ar    1  LIG1       -0.0062
     89 C           2.7998  -19.9019    0.0246 C.ar    1  LIG1        0.1356
     90 C           4.1133  -19.3981    0.0020 C.ar    1  LIG1        0.0711
     91 N           4.4050  -18.0829   -0.0177 N.ar    1  LIG1       -0.2364
     92 H           0.6983  -19.3507    0.0429 H       1  LIG1        0.0662
     93 H           5.1346  -20.2024   -0.0008 H       1  LIG1        0.0867
     94 N           3.6831  -15.9607   -0.0346 N.pl3   1  LIG1       -0.3426
     95 H           4.5543  -15.8416   -0.5109 H       1  LIG1        0.1437
     96 H           2.9698  -15.4467   -0.5110 H       1  LIG1        0.1437
     97 O           2.5881  -21.1845    0.0428 O.3     1  LIG1       -0.5052
     98 H           3.4289  -21.6479    0.0473 H       1  LIG1        0.2922
@<TRIPOS>BOND
     1    10     8    1
     2    72    70    1
     3    36    33    1
     4    61    58    1
     5    25    23    1
     6    24    23    1
     7    96    94    1
     8    95    94    1
     9    84    82    1
    10    83    82    1
    11    23    20    1
    12    21    19    1
    13    56    55    1
    14    94    86    1
    15    74    68    1
    16    55    48    1
    17    82    75    1
    18    69    67    1
    19    19    20   ar
    20    19    16   ar
    21    20    17   ar
    22    91    86   ar
    23    91    90   ar
    24    86    87   ar
    25    68    67   ar
    26    68    65   ar
    27    67    64   ar
    28    80    75   ar
    29    80    79   ar
    30    53    48   ar
    31    53    52   ar
    32    48    49   ar
    33    75    76   ar
    34    93    90    1
    35     2     8    1
    36     2     1   ar
    37     2     3   ar
    38     4    16    1
    39     4     5   ar
    40     4     3   ar
    41     6     5    1
    42     8    11    1
    43     8     9    1
    44    16    14   ar
    45     5     1   ar
    46     1     7    1
    47     3    12    1
    48    12    13    1
    49    17    26    1
    50    17    15   ar
    51    90    89   ar
    52    26    30   ar
    53    26    27   ar
    54    30    29   ar
    55    31    27    1
    56    27    28   ar
    57    29    28   ar
    58    29    37    1
    59    28    32    1
    60    42    41    1
    61    45    44    1
    62    44    43    3
    63    37    38   ar
    64    37    41   ar
    65    43    38    1
    66    38    39   ar
    67    41    40   ar
    68    87    79    1
    69    87    88   ar
    70    32    33    1
    71    33    34    1
    72    33    35    1
    73    40    39   ar
    74    40    49    1
    75    79    78   ar
    76    64    52    1
    77    64    62   ar
    78    39    46    1
    79    65    76    1
    80    65    63   ar
    81    49    50   ar
    82    52    51   ar
    83    76    77   ar
    84    46    47    1
    85    14    15   ar
    86    14    22    1
    87    15    18    1
    88    89    88   ar
    89    89    97    1
    90    88    92    1
    91    78    77   ar
    92    78    85    1
    93    63    62   ar
    94    63    66    1
    95    62    70    1
    96    50    51   ar
    97    50    54    1
    98    77    81    1
    99    51    57    1
   100    97    98    1
   101    57    73    1
   102    70    71    1
   103    58    59    1
   104    58    60    1
