@<TRIPOS>MOLECULE
mol_data/noopt/geoms/mol2/13if13if-13if-13if-.out
 50 53 0 0 0
SMALL
GASTEIGER

@<TRIPOS>ATOM
      1 C           1.1215   -0.3259    0.0002 C.ar    1  LIG1        0.0087
      2 C           0.7176    0.9721   -0.0005 C.ar    1  LIG1        0.0090
      3 C          -0.7144    0.9744    0.0003 C.ar    1  LIG1        0.1463
      4 C          -1.1226   -0.3223   -0.0003 C.ar    1  LIG1        0.1055
      5 N          -0.0018   -1.1217    0.0001 N.ar    1  LIG1       -0.3563
      6 H          -0.0034   -2.1157   -0.0003 H       1  LIG1        0.1655
      7 H           2.3167   -0.8373    0.0007 H       1  LIG1        0.0811
      8 C           1.4920    2.0167   -0.0003 C.3     1  LIG1       -0.0348
      9 H           1.0026    2.8234    0.5042 H       1  LIG1        0.0279
     10 H           1.7045    2.3034   -1.0091 H       1  LIG1        0.0279
     11 H           2.4062    1.7828    0.5041 H       1  LIG1        0.0279
     12 O          -1.4853    2.0212    0.0010 O.3     1  LIG1       -0.5043
     13 H          -2.4040    1.7426    0.0012 H       1  LIG1        0.2922
     14 C          -2.3194   -0.8299   -0.0001 C.ar    1  LIG1        0.0735
     15 C          -2.7274   -2.1266   -0.0005 C.ar    1  LIG1        0.0185
     16 C          -4.1594   -2.1244    0.0011 C.ar    1  LIG1        0.1470
     17 C          -4.5635   -0.8264    0.0006 C.ar    1  LIG1        0.1060
     18 N          -3.4402   -0.0305    0.0003 N.ar    1  LIG1       -0.3486
     19 H          -3.4386    0.9635   -0.0001 H       1  LIG1        0.1661
     20 C          -1.9564   -3.1736   -0.0006 C.3     1  LIG1       -0.0342
     21 H          -1.0413   -2.9428    0.5038 H       1  LIG1        0.0279
     22 H          -1.7448   -3.4607   -1.0095 H       1  LIG1        0.0279
     23 H          -2.4483   -3.9789    0.5037 H       1  LIG1        0.0279
     24 O          -4.9337   -3.1687    0.0023 O.3     1  LIG1       -0.5043
     25 H          -4.3975   -3.9651    0.0026 H       1  LIG1        0.2922
     26 C          -5.7587   -0.3150    0.0014 C.ar    1  LIG1        0.0735
     27 C          -6.9765   -0.9191    0.0015 C.ar    1  LIG1        0.0185
     28 C          -7.9670    0.1151    0.0037 C.ar    1  LIG1        0.1470
     29 C          -7.3109    1.3057    0.0031 C.ar    1  LIG1        0.1060
     30 N          -5.9587    1.0470    0.0022 N.ar    1  LIG1       -0.3486
     31 H          -5.2408    1.7345    0.0016 H       1  LIG1        0.1661
     32 C          -7.1973   -2.2005    0.0012 C.3     1  LIG1       -0.0342
     33 H          -6.3970   -2.7005    0.5056 H       1  LIG1        0.0279
     34 H          -7.2578   -2.5518   -1.0077 H       1  LIG1        0.0279
     35 H          -8.1189   -2.4037    0.5055 H       1  LIG1        0.0279
     36 O          -9.2565   -0.0501    0.0054 O.3     1  LIG1       -0.5043
     37 H          -9.4593   -0.9884    0.0059 H       1  LIG1        0.2922
     38 C          -7.7701    2.5219    0.0044 C.ar    1  LIG1        0.0730
     39 C          -9.0494    2.9816    0.0047 C.ar    1  LIG1        0.0178
     40 C          -8.9898    4.4124    0.0074 C.ar    1  LIG1        0.1376
     41 C          -7.6767    4.7641    0.0068 C.ar    1  LIG1        0.0445
     42 N          -6.9265    3.6098    0.0054 N.ar    1  LIG1       -0.3561
     43 H          -5.9333    3.5684    0.0046 H       1  LIG1        0.1655
     44 H          -7.1178    5.9378    0.0083 H       1  LIG1        0.0844
     45 C         -10.1265    2.2531    0.0043 C.3     1  LIG1       -0.0342
     46 H          -9.9326    1.3295    0.5087 H       1  LIG1        0.0279
     47 H         -10.4217    2.0534   -1.0046 H       1  LIG1        0.0279
     48 H         -10.9115    2.7769    0.5086 H       1  LIG1        0.0279
     49 O         -10.0023    5.2278    0.0095 O.3     1  LIG1       -0.5050
     50 H         -10.8195    4.7240    0.0100 H       1  LIG1        0.2922
@<TRIPOS>BOND
     1    22    20    1
     2    10     8    1
     3    34    32    1
     4    47    45    1
     5    20    15    1
     6    20    23    1
     7    20    21    1
     8     2     8    1
     9     2     1   ar
    10     2     3   ar
    11    15    14   ar
    12    15    16   ar
    13     4    14    1
    14     4     5   ar
    15     4     3   ar
    16     6     5    1
    17     8    11    1
    18     8     9    1
    19    19    18    1
    20    14    18   ar
    21     5     1   ar
    22     1     7    1
    23     3    12    1
    24    18    17   ar
    25    17    16   ar
    26    17    26    1
    27    12    13    1
    28    16    24    1
    29    32    27    1
    30    32    35    1
    31    32    33    1
    32    26    27   ar
    33    26    30   ar
    34    27    28   ar
    35    31    30    1
    36    30    29   ar
    37    24    25    1
    38    29    28   ar
    39    29    38    1
    40    28    36    1
    41    45    39    1
    42    45    48    1
    43    45    46    1
    44    38    39   ar
    45    38    42   ar
    46    43    42    1
    47    39    40   ar
    48    42    41   ar
    49    36    37    1
    50    41    40   ar
    51    41    44    1
    52    40    49    1
    53    49    50    1
