@<TRIPOS>MOLECULE
mol_data/noopt/geoms/mol2/13if13if13if-13if-.out
 50 53 0 0 0
SMALL
GASTEIGER

@<TRIPOS>ATOM
      1 C           1.1215   -0.3259    0.0002 C.ar    1  LIG1        0.0087
      2 C           0.7176    0.9721   -0.0005 C.ar    1  LIG1        0.0090
      3 C          -0.7144    0.9744    0.0003 C.ar    1  LIG1        0.1463
      4 C          -1.1226   -0.3223   -0.0003 C.ar    1  LIG1        0.1055
      5 N          -0.0018   -1.1217    0.0001 N.ar    1  LIG1       -0.3563
      6 H          -0.0034   -2.1157   -0.0003 H       1  LIG1        0.1655
      7 H           2.3167   -0.8373    0.0007 H       1  LIG1        0.0811
      8 C           1.4920    2.0167   -0.0003 C.3     1  LIG1       -0.0348
      9 H           1.0026    2.8234    0.5042 H       1  LIG1        0.0279
     10 H           1.7045    2.3034   -1.0091 H       1  LIG1        0.0279
     11 H           2.4062    1.7828    0.5041 H       1  LIG1        0.0279
     12 O          -1.4853    2.0212    0.0010 O.3     1  LIG1       -0.5043
     13 H          -2.4040    1.7426    0.0012 H       1  LIG1        0.2922
     14 C          -2.3194   -0.8299   -0.0001 C.ar    1  LIG1        0.0735
     15 C          -3.5353   -0.2219   -0.0003 C.ar    1  LIG1        0.0185
     16 C          -4.5290   -1.2530    0.0012 C.ar    1  LIG1        0.1470
     17 C          -3.8767   -2.4457    0.0005 C.ar    1  LIG1        0.1060
     18 N          -2.5238   -2.1913    0.0002 N.ar    1  LIG1       -0.3486
     19 H          -1.8081   -2.8811   -0.0004 H       1  LIG1        0.1661
     20 C          -3.7520    1.0602   -0.0003 C.3     1  LIG1       -0.0342
     21 H          -4.6729    1.2662    0.5041 H       1  LIG1        0.0279
     22 H          -3.8116    1.4119   -1.0091 H       1  LIG1        0.0279
     23 H          -2.9500    1.5575    0.5041 H       1  LIG1        0.0279
     24 O          -5.8180   -1.0837    0.0025 O.3     1  LIG1       -0.5043
     25 H          -6.2535   -1.9392    0.0028 H       1  LIG1        0.2922
     26 C          -4.3398   -3.6604    0.0012 C.ar    1  LIG1        0.0735
     27 C          -3.6874   -4.8530    0.0012 C.ar    1  LIG1        0.0185
     28 C          -4.6811   -5.8841    0.0032 C.ar    1  LIG1        0.1470
     29 C          -5.8970   -5.2763    0.0027 C.ar    1  LIG1        0.1060
     30 N          -5.6927   -3.9149    0.0019 N.ar    1  LIG1       -0.3486
     31 H          -6.4084   -3.2251    0.0013 H       1  LIG1        0.1661
     32 C          -2.3981   -5.0223    0.0009 C.3     1  LIG1       -0.0342
     33 H          -1.9306   -4.2026    0.5053 H       1  LIG1        0.0279
     34 H          -2.0446   -5.0687   -1.0080 H       1  LIG1        0.0279
     35 H          -2.1582   -5.9351    0.5052 H       1  LIG1        0.0279
     36 O          -4.4643   -7.1660    0.0049 O.3     1  LIG1       -0.5043
     37 H          -3.5186   -7.3310    0.0053 H       1  LIG1        0.2922
     38 C          -7.0939   -5.7839    0.0038 C.ar    1  LIG1        0.0730
     39 C          -7.5019   -7.0806    0.0041 C.ar    1  LIG1        0.0178
     40 C          -8.9339   -7.0784    0.0067 C.ar    1  LIG1        0.1376
     41 C          -9.3380   -5.7804    0.0061 C.ar    1  LIG1        0.0445
     42 N          -8.2146   -4.9846    0.0048 N.ar    1  LIG1       -0.3561
     43 H          -8.2131   -3.9906    0.0040 H       1  LIG1        0.1655
     44 H         -10.5331   -5.2690    0.0075 H       1  LIG1        0.0844
     45 C          -6.7308   -8.1276    0.0038 C.3     1  LIG1       -0.0342
     46 H          -5.8157   -7.8969    0.5081 H       1  LIG1        0.0279
     47 H          -6.5194   -8.4146   -1.0052 H       1  LIG1        0.0279
     48 H          -7.2227   -8.9330    0.5080 H       1  LIG1        0.0279
     49 O          -9.7081   -8.1227    0.0087 O.3     1  LIG1       -0.5050
     50 H          -9.1719   -8.9191    0.0092 H       1  LIG1        0.2922
@<TRIPOS>BOND
     1    22    20    1
     2    10     8    1
     3    34    32    1
     4    47    45    1
     5     2     8    1
     6     2     1   ar
     7     2     3   ar
     8    19    18    1
     9    15    20    1
    10    15    14   ar
    11    15    16   ar
    12     4    14    1
    13     4     5   ar
    14     4     3   ar
    15     6     5    1
    16     8    11    1
    17     8     9    1
    18    20    23    1
    19    20    21    1
    20    14    18   ar
    21     5     1   ar
    22    18    17   ar
    23     1     7    1
    24     3    12    1
    25    17    16   ar
    26    17    26    1
    27    32    27    1
    28    32    35    1
    29    32    33    1
    30    12    13    1
    31    27    26   ar
    32    27    28   ar
    33    16    24    1
    34    26    30   ar
    35    31    30    1
    36    30    29   ar
    37    24    25    1
    38    29    28   ar
    39    29    38    1
    40    28    36    1
    41    45    39    1
    42    45    48    1
    43    45    46    1
    44    38    39   ar
    45    38    42   ar
    46    43    42    1
    47    39    40   ar
    48    42    41   ar
    49    36    37    1
    50    41    40   ar
    51    41    44    1
    52    40    49    1
    53    49    50    1
