@<TRIPOS>MOLECULE
mol_data/noopt/geoms/mol2/13if13if-13if13if-.out
 50 53 0 0 0
SMALL
GASTEIGER

@<TRIPOS>ATOM
      1 C           1.1215   -0.3259    0.0002 C.ar    1  LIG1        0.0087
      2 C           0.7176    0.9721   -0.0005 C.ar    1  LIG1        0.0090
      3 C          -0.7144    0.9744    0.0003 C.ar    1  LIG1        0.1463
      4 C          -1.1226   -0.3223   -0.0003 C.ar    1  LIG1        0.1055
      5 N          -0.0018   -1.1217    0.0001 N.ar    1  LIG1       -0.3563
      6 H          -0.0034   -2.1157   -0.0003 H       1  LIG1        0.1655
      7 H           2.3167   -0.8373    0.0007 H       1  LIG1        0.0811
      8 C           1.4920    2.0167   -0.0003 C.3     1  LIG1       -0.0348
      9 H           1.0026    2.8234    0.5042 H       1  LIG1        0.0279
     10 H           1.7045    2.3034   -1.0091 H       1  LIG1        0.0279
     11 H           2.4062    1.7828    0.5041 H       1  LIG1        0.0279
     12 O          -1.4853    2.0212    0.0010 O.3     1  LIG1       -0.5043
     13 H          -2.4040    1.7426    0.0012 H       1  LIG1        0.2922
     14 C          -2.3194   -0.8299   -0.0001 C.ar    1  LIG1        0.0735
     15 C          -2.7274   -2.1266   -0.0005 C.ar    1  LIG1        0.0185
     16 C          -4.1594   -2.1244    0.0011 C.ar    1  LIG1        0.1470
     17 C          -4.5635   -0.8264    0.0006 C.ar    1  LIG1        0.1060
     18 N          -3.4402   -0.0305    0.0003 N.ar    1  LIG1       -0.3486
     19 H          -3.4386    0.9635   -0.0001 H       1  LIG1        0.1661
     20 C          -1.9564   -3.1736   -0.0006 C.3     1  LIG1       -0.0342
     21 H          -1.0413   -2.9428    0.5038 H       1  LIG1        0.0279
     22 H          -1.7448   -3.4607   -1.0095 H       1  LIG1        0.0279
     23 H          -2.4483   -3.9789    0.5037 H       1  LIG1        0.0279
     24 O          -4.9337   -3.1687    0.0023 O.3     1  LIG1       -0.5043
     25 H          -4.3975   -3.9651    0.0026 H       1  LIG1        0.2922
     26 C          -5.7587   -0.3150    0.0014 C.ar    1  LIG1        0.0735
     27 C          -6.1626    0.9830    0.0016 C.ar    1  LIG1        0.0185
     28 C          -7.5946    0.9853    0.0038 C.ar    1  LIG1        0.1470
     29 C          -8.0028   -0.3114    0.0030 C.ar    1  LIG1        0.1060
     30 N          -6.8820   -1.1108    0.0021 N.ar    1  LIG1       -0.3486
     31 H          -6.8836   -2.1048    0.0013 H       1  LIG1        0.1661
     32 C          -5.3882    2.0276    0.0015 C.3     1  LIG1       -0.0342
     33 H          -5.8776    2.8344    0.5059 H       1  LIG1        0.0279
     34 H          -5.1759    2.3141   -1.0073 H       1  LIG1        0.0279
     35 H          -4.4739    1.7938    0.5059 H       1  LIG1        0.0279
     36 O          -8.3655    2.0321    0.0056 O.3     1  LIG1       -0.5043
     37 H          -9.2842    1.7535    0.0060 H       1  LIG1        0.2922
     38 C          -9.1996   -0.8190    0.0041 C.ar    1  LIG1        0.0730
     39 C          -9.6076   -2.1157    0.0044 C.ar    1  LIG1        0.0178
     40 C         -11.0396   -2.1135    0.0069 C.ar    1  LIG1        0.1376
     41 C         -11.4437   -0.8155    0.0063 C.ar    1  LIG1        0.0445
     42 N         -10.3204   -0.0196    0.0051 N.ar    1  LIG1       -0.3561
     43 H         -10.3188    0.9744    0.0043 H       1  LIG1        0.1655
     44 H         -12.6389   -0.3041    0.0077 H       1  LIG1        0.0844
     45 C          -8.8366   -3.1627    0.0040 C.3     1  LIG1       -0.0342
     46 H          -7.9215   -2.9320    0.5084 H       1  LIG1        0.0279
     47 H          -8.6251   -3.4497   -1.0049 H       1  LIG1        0.0279
     48 H          -9.3285   -3.9681    0.5083 H       1  LIG1        0.0279
     49 O         -11.8139   -3.1578    0.0089 O.3     1  LIG1       -0.5050
     50 H         -11.2777   -3.9542    0.0094 H       1  LIG1        0.2922
@<TRIPOS>BOND
     1    22    20    1
     2    10     8    1
     3    34    32    1
     4    47    45    1
     5    20    15    1
     6    20    23    1
     7    20    21    1
     8     2     8    1
     9     2     1   ar
    10     2     3   ar
    11    15    14   ar
    12    15    16   ar
    13     4    14    1
    14     4     5   ar
    15     4     3   ar
    16     6     5    1
    17     8    11    1
    18     8     9    1
    19    19    18    1
    20    14    18   ar
    21     5     1   ar
    22     1     7    1
    23     3    12    1
    24    18    17   ar
    25    17    16   ar
    26    17    26    1
    27    12    13    1
    28    16    24    1
    29    31    30    1
    30    26    27   ar
    31    26    30   ar
    32    32    27    1
    33    32    35    1
    34    32    33    1
    35    27    28   ar
    36    30    29   ar
    37    24    25    1
    38    29    28   ar
    39    29    38    1
    40    28    36    1
    41    45    39    1
    42    45    48    1
    43    45    46    1
    44    38    39   ar
    45    38    42   ar
    46    43    42    1
    47    39    40   ar
    48    42    41   ar
    49    36    37    1
    50    41    40   ar
    51    41    44    1
    52    40    49    1
    53    49    50    1
