@<TRIPOS>MOLECULE
mol_data/noopt/geoms/mol2/13if6af-13ei-4el-.out
 53 56 0 0 0
SMALL
GASTEIGER

@<TRIPOS>ATOM
      1 C           1.1215   -0.3259    0.0002 C.ar    1  LIG1        0.0087
      2 C           0.7176    0.9721   -0.0005 C.ar    1  LIG1        0.0089
      3 C          -0.7144    0.9744    0.0003 C.ar    1  LIG1        0.1449
      4 C          -1.1226   -0.3223   -0.0003 C.ar    1  LIG1        0.0903
      5 N          -0.0018   -1.1217    0.0001 N.ar    1  LIG1       -0.3574
      6 H          -0.0034   -2.1157   -0.0003 H       1  LIG1        0.1655
      7 H           2.3167   -0.8373    0.0007 H       1  LIG1        0.0811
      8 C           1.4920    2.0167   -0.0003 C.3     1  LIG1       -0.0348
      9 H           1.0026    2.8234    0.5042 H       1  LIG1        0.0279
     10 H           1.7045    2.3034   -1.0091 H       1  LIG1        0.0279
     11 H           2.4062    1.7828    0.5041 H       1  LIG1        0.0279
     12 O          -1.4853    2.0212    0.0010 O.3     1  LIG1       -0.5044
     13 H          -2.4040    1.7426    0.0012 H       1  LIG1        0.2922
     14 C          -2.5002   -2.2250   -0.0210 C.ar    1  LIG1        0.0378
     15 C          -2.3194   -0.8299   -0.0001 C.ar    1  LIG1        0.0235
     16 C          -3.4501   -0.0114    0.0210 C.ar    1  LIG1       -0.0073
     17 C          -4.7120   -0.6083    0.0204 C.ar    1  LIG1        0.1448
     18 C          -4.7903   -2.0130   -0.0016 C.ar    1  LIG1        0.1295
     19 N          -3.7099   -2.8177   -0.0220 N.ar    1  LIG1       -0.2491
     20 H          -3.3484    1.0830    0.0367 H       1  LIG1        0.0662
     21 H          -1.4783   -3.0283   -0.0410 H       1  LIG1        0.0836
     22 O          -5.7953    0.1100    0.0393 O.3     1  LIG1       -0.5045
     23 H          -6.5625   -0.4671    0.0440 H       1  LIG1        0.2922
     24 C          -5.9424   -2.6153   -0.0030 C.ar    1  LIG1        0.0848
     25 C          -7.2032   -2.1072   -0.0044 C.ar    1  LIG1        0.0550
     26 C          -8.1107   -3.2150   -0.0045 C.ar    1  LIG1       -0.0091
     27 C          -7.3644   -4.3513   -0.0050 C.ar    1  LIG1        0.0524
     28 N          -6.0364   -3.9887   -0.0037 N.ar    1  LIG1       -0.3516
     29 H          -5.2674   -4.6186   -0.0038 H       1  LIG1        0.1660
     30 C          -7.5225   -0.8470   -0.0040 C.1     1  LIG1       -0.0672
     31 C          -7.8175    0.3174   -0.0036 C.1     1  LIG1       -0.1138
     32 H          -8.0802    1.3546   -0.0032 H       1  LIG1        0.1232
     33 C          -9.4094   -3.1500   -0.0046 C.3     1  LIG1       -0.0365
     34 H          -9.8093   -4.0048    0.4998 H       1  LIG1        0.0279
     35 H          -9.7656   -3.1323   -1.0135 H       1  LIG1        0.0279
     36 H          -9.7220   -2.2596    0.4997 H       1  LIG1        0.0279
     37 C          -9.0982   -5.9317    0.0164 C.ar    1  LIG1        0.0340
     38 C          -9.4404   -7.2978    0.0165 C.ar    1  LIG1       -0.0422
     39 C          -7.7282   -5.5993   -0.0055 C.ar    1  LIG1        0.0174
     40 C          -8.4635   -8.2907   -0.0048 C.ar    1  LIG1       -0.0188
     41 H         -10.4917   -7.5764    0.0334 H       1  LIG1        0.0631
     42 C          -6.7525   -6.5901   -0.0267 C.ar    1  LIG1       -0.0097
     43 C          -7.1126   -7.9417   -0.0267 C.ar    1  LIG1        0.1208
     44 H          -5.7028   -6.3083   -0.0433 H       1  LIG1        0.0661
     45 H          -8.8151   -9.5423   -0.0042 H       1  LIG1        0.0654
     46 C         -10.0543   -5.0512    0.0366 C.1     1  LIG1       -0.0690
     47 C         -10.9378   -4.2376    0.0553 C.1     1  LIG1       -0.1139
     48 H         -11.7248   -3.5128    0.0719 H       1  LIG1        0.1232
     49 O          -6.1962   -8.8636   -0.0465 O.3     1  LIG1       -0.4951
     50 C          -6.8157  -10.1524   -0.0538 C.3     1  LIG1        0.0788
     51 H          -6.0611  -10.9108   -0.0703 H       1  LIG1        0.0660
     52 H          -7.4153  -10.2649    0.8253 H       1  LIG1        0.0660
     53 H          -7.4343  -10.2459   -0.9218 H       1  LIG1        0.0660
@<TRIPOS>BOND
     1    35    33    1
     2    10     8    1
     3    53    50    1
     4    51    50    1
     5    50    49    1
     6    50    52    1
     7    49    43    1
     8    44    42    1
     9    21    14    1
    10    42    43   ar
    11    42    39   ar
    12    43    40   ar
    13    19    14   ar
    14    19    18   ar
    15    14    15   ar
    16    39    27    1
    17    39    37   ar
    18    27    26   ar
    19    27    28   ar
    20    40    45    1
    21    40    38   ar
    22    33    26    1
    23    33    36    1
    24    33    34    1
    25    26    25   ar
    26    25    30    1
    27    25    24   ar
    28    30    31    3
    29    29    28    1
    30    28    24   ar
    31    31    32    1
    32    24    18    1
    33    18    17   ar
    34     2     8    1
    35     2     1   ar
    36     2     3   ar
    37     8    11    1
    38     8     9    1
    39     6     5    1
    40     4    15    1
    41     4     5   ar
    42     4     3   ar
    43    15    16   ar
    44     5     1   ar
    45     1     7    1
    46     3    12    1
    47    12    13    1
    48    37    38   ar
    49    37    46    1
    50    38    41    1
    51    17    16   ar
    52    17    22    1
    53    16    20    1
    54    46    47    3
    55    22    23    1
    56    47    48    1
