@<TRIPOS>MOLECULE
mol_data/noopt/geoms/mol2/13ig13ig13ig-.out
 38 36 0 0 0
SMALL
GASTEIGER

@<TRIPOS>ATOM
      1 C           1.1215   -0.3259    0.0002 C.2     1  LIG1       -0.0021
      2 C           0.7176    0.9721   -0.0005 C.2     1  LIG1       -0.0206
      3 C          -0.7144    0.9744    0.0003 C.2     1  LIG1        0.0457
      4 C          -1.1226   -0.3223   -0.0003 C.2     1  LIG1        0.0635
      5 N          -0.0018   -1.1217    0.0001 N.pl3   1  LIG1       -0.3182
      6 H          -0.0034   -2.1157   -0.0003 H       1  LIG1        0.1517
      7 H           2.3167   -0.8373    0.0007 H       1  LIG1        0.0784
      8 C           1.4920    2.0167   -0.0003 C.3     1  LIG1       -0.0374
      9 H           1.0026    2.8234    0.5042 H       1  LIG1        0.0278
     10 H           1.7045    2.3034   -1.0091 H       1  LIG1        0.0278
     11 H           2.4062    1.7828    0.5041 H       1  LIG1        0.0278
     12 S          -1.4853    2.0211    0.0010 S.2     1  LIG1       -0.0497
     13 H          -2.7389    1.6410    0.0012 H       2  UNK2        0.0000
     14 C          -2.3194   -0.8299   -0.0001 C.2     1  LIG1        0.0408
     15 C          -3.5352   -0.2220    0.0163 C.3     1  LIG1        0.0731
     16 C          -4.5290   -1.2531    0.0088 C.2     1  LIG1        0.0203
     17 C          -3.8768   -2.4456   -0.0136 C.3     1  LIG1        0.1333
     18 N          -2.5238   -2.1911   -0.0187 N.pl3   1  LIG1       -0.3280
     19 H          -1.8082   -2.8808   -0.0339 H       1  LIG1        0.1472
     20 C          -3.7519    1.0599    0.0366 C.3     3  LIG3       -0.0681
     21 H          -4.6715    1.2582    0.5466 H       1  LIG1        0.0227
     22 H          -3.8141    1.4271   -0.9665 H       1  LIG1        0.0227
     23 H          -2.9486    1.5494    0.5465 H       1  LIG1        0.0227
     24 S          -5.8178   -1.0839    0.0207 S.2     1  LIG1       -0.0576
     25 H          -6.4121   -2.2513    0.0247 H       4  UNK4        0.0000
     26 C          -4.3399   -3.6602   -0.0280 C.ar    1  LIG1        0.0563
     27 C          -5.6206   -4.1159   -0.0215 C.ar    1  LIG1        0.0212
     28 C          -5.5656   -5.5467   -0.0437 C.ar    1  LIG1        0.0302
     29 C          -4.2537   -5.9024   -0.0646 C.ar    1  LIG1        0.0158
     30 N          -3.4998   -4.7505   -0.0546 N.ar    1  LIG1       -0.3609
     31 H          -2.5066   -4.7122   -0.0655 H       1  LIG1        0.1651
     32 H          -3.6986   -7.0777   -0.0891 H       1  LIG1        0.0818
     33 C          -6.6953   -3.3842    0.0022 C.3     5  LIG5       -0.0681
     34 H          -7.4741   -3.9108    0.5131 H       2  UNK2        0.0227
     35 H          -7.0053   -3.1732   -0.9999 H       2  UNK2        0.0227
     36 H          -6.4907   -2.4665    0.5130 H       2  UNK2        0.0227
     37 S          -6.5806   -6.3589   -0.0444 S.3     1  LIG1       -0.1406
     38 H          -6.1504   -7.5963   -0.0446 H       1  LIG1        0.1072
@<TRIPOS>BOND
     1    10     8    1
     2    35    33    1
     3    22    20    1
     4    32    29    1
     5    31    30    1
     6    29    30   ar
     7    29    28   ar
     8    30    26   ar
     9    38    37    1
    10    37    28    1
    11    28    27   ar
    12    19    18    1
    13    26    27   ar
    14    26    17    1
    15    18    17    1
    16    18    14    1
    17    17    16    1
    18     2     8    1
    19     2     1    2
    20     2     3    1
    21     6     5    1
    22     4    14    2
    23     4     5    1
    24     4     3    1
    25     8    11    1
    26     8     9    1
    27    14    15    1
    28     5     1    1
    29     1     7    1
    30     3    12    2
    31    33    36    1
    32    33    34    1
    33    16    15    1
    34    16    24    2
    35    20    23    1
    36    20    21    1
