@<TRIPOS>MOLECULE
mol_data/noopt/geoms/mol2/13ig13ig-13ig13ig-.out
 50 47 0 0 0
SMALL
GASTEIGER

@<TRIPOS>ATOM
      1 C           1.1215   -0.3259    0.0002 C.2     1  LIG1       -0.0021
      2 C           0.7176    0.9721   -0.0005 C.2     1  LIG1       -0.0206
      3 C          -0.7144    0.9744    0.0003 C.2     1  LIG1        0.0457
      4 C          -1.1226   -0.3223   -0.0003 C.2     1  LIG1        0.0638
      5 N          -0.0018   -1.1217    0.0001 N.pl3   1  LIG1       -0.3182
      6 H          -0.0034   -2.1157   -0.0003 H       1  LIG1        0.1517
      7 H           2.3167   -0.8373    0.0007 H       1  LIG1        0.0784
      8 C           1.4920    2.0167   -0.0003 C.3     1  LIG1       -0.0374
      9 H           1.0026    2.8234    0.5042 H       1  LIG1        0.0278
     10 H           1.7045    2.3034   -1.0091 H       1  LIG1        0.0278
     11 H           2.4062    1.7828    0.5041 H       1  LIG1        0.0278
     12 S          -1.4853    2.0211    0.0010 S.2     1  LIG1       -0.0497
     13 H          -2.7389    1.6410    0.0012 H       2  UNK2        0.0000
     14 C          -2.3194   -0.8299   -0.0001 C.2     1  LIG1        0.0444
     15 C          -3.5353   -0.2219   -0.0003 C.3     1  LIG1        0.0771
     16 C          -4.5290   -1.2530    0.0012 C.2     1  LIG1        0.0334
     17 C          -3.8767   -2.4457    0.0005 C.2     1  LIG1        0.0604
     18 N          -2.5238   -2.1913    0.0002 N.pl3   1  LIG1       -0.3137
     19 H          -1.8081   -2.8811   -0.0004 H       1  LIG1        0.1520
     20 C          -3.7520    1.0602   -0.0003 C.3     3  LIG3       -0.0681
     21 H          -4.6729    1.2662    0.5041 H       1  LIG1        0.0227
     22 H          -3.8116    1.4119   -1.0091 H       1  LIG1        0.0227
     23 H          -2.9500    1.5575    0.5041 H       1  LIG1        0.0227
     24 S          -5.8179   -1.0837    0.0025 S.2     1  LIG1       -0.0537
     25 H          -6.4122   -2.2511    0.0029 H       4  UNK4        0.0000
     26 C          -4.3398   -3.6604    0.0012 C.2     1  LIG1        0.0406
     27 C          -5.6206   -4.1160    0.0013 C.3     1  LIG1        0.0731
     28 C          -5.5655   -5.5470    0.0033 C.2     1  LIG1        0.0203
     29 C          -4.2535   -5.9029    0.0026 C.3     1  LIG1        0.1333
     30 N          -3.4996   -4.7510    0.0018 N.pl3   1  LIG1       -0.3280
     31 H          -2.5064   -4.7127    0.0010 H       1  LIG1        0.1472
     32 C          -6.6953   -3.3841    0.0012 C.3     5  LIG5       -0.0681
     33 H          -7.4819   -3.9054    0.5056 H       2  UNK2        0.0227
     34 H          -6.9901   -3.1834   -1.0076 H       2  UNK2        0.0227
     35 H          -6.4984   -2.4612    0.5056 H       2  UNK2        0.0227
     36 S          -6.5805   -6.3592    0.0050 S.2     1  LIG1       -0.0576
     37 H          -6.1504   -7.5965    0.0056 H       6  UNK6        0.0000
     38 C          -3.6983   -7.0784    0.0036 C.ar    1  LIG1        0.0563
     39 C          -4.2571   -8.3176    0.0039 C.ar    1  LIG1        0.0212
     40 C          -3.1870   -9.2693    0.0063 C.ar    1  LIG1        0.0302
     41 C          -2.0214   -8.5697    0.0055 C.ar    1  LIG1        0.0158
     42 N          -2.3298   -7.2280    0.0043 N.ar    1  LIG1       -0.3609
     43 H          -1.6693   -6.4852    0.0035 H       1  LIG1        0.1651
     44 H          -0.7891   -8.9837    0.0068 H       1  LIG1        0.0818
     45 C          -5.5295   -8.5856    0.0038 C.3     7  LIG7       -0.0681
     46 H          -5.6985   -9.5140    0.5082 H       3  LIG3        0.0227
     47 H          -5.8784   -8.6592   -1.0051 H       3  LIG3        0.0227
     48 H          -6.0586   -7.8042    0.5081 H       3  LIG3        0.0227
     49 S          -3.3045  -10.5639    0.0083 S.3     1  LIG1       -0.1406
     50 H          -2.1142  -11.1110    0.0090 H       1  LIG1        0.1072
@<TRIPOS>BOND
     1    22    20    1
     2    10     8    1
     3    34    32    1
     4    47    45    1
     5     2     8    1
     6     2     1    2
     7     2     3    1
     8    19    18    1
     9    15    14    1
    10    15    16    1
    11     4    14    2
    12     4     5    1
    13     4     3    1
    14     6     5    1
    15     8    11    1
    16     8     9    1
    17    20    23    1
    18    20    21    1
    19    14    18    1
    20     5     1    1
    21    18    17    1
    22     1     7    1
    23     3    12    2
    24    17    16    1
    25    17    26    2
    26    31    30    1
    27    16    24    2
    28    26    27    1
    29    26    30    1
    30    32    35    1
    31    32    33    1
    32    27    28    1
    33    30    29    1
    34    29    28    1
    35    29    38    1
    36    28    36    2
    37    43    42    1
    38    38    39   ar
    39    38    42   ar
    40    45    48    1
    41    45    46    1
    42    39    40   ar
    43    42    41   ar
    44    41    40   ar
    45    41    44    1
    46    40    49    1
    47    49    50    1
