@<TRIPOS>MOLECULE
mol_data/noopt/geoms/mol2/13ig13ig-13ig-13ig-.out
 50 47 0 0 0
SMALL
GASTEIGER

@<TRIPOS>ATOM
      1 C           1.1215   -0.3259    0.0002 C.2     1  LIG1       -0.0021
      2 C           0.7176    0.9721   -0.0005 C.2     1  LIG1       -0.0206
      3 C          -0.7144    0.9744    0.0003 C.2     1  LIG1        0.0457
      4 C          -1.1226   -0.3223   -0.0003 C.2     1  LIG1        0.0638
      5 N          -0.0018   -1.1217    0.0001 N.pl3   1  LIG1       -0.3182
      6 H          -0.0034   -2.1157   -0.0003 H       1  LIG1        0.1517
      7 H           2.3167   -0.8373    0.0007 H       1  LIG1        0.0784
      8 C           1.4920    2.0167   -0.0003 C.3     1  LIG1       -0.0374
      9 H           1.0026    2.8234    0.5042 H       1  LIG1        0.0278
     10 H           1.7045    2.3034   -1.0091 H       1  LIG1        0.0278
     11 H           2.4062    1.7828    0.5041 H       1  LIG1        0.0278
     12 S          -1.4853    2.0211    0.0010 S.2     1  LIG1       -0.0497
     13 H          -2.7389    1.6410    0.0012 H       2  UNK2        0.0000
     14 C          -2.3194   -0.8299   -0.0001 C.2     1  LIG1        0.0444
     15 C          -3.5353   -0.2219   -0.0003 C.3     1  LIG1        0.0771
     16 C          -4.5290   -1.2530    0.0012 C.2     1  LIG1        0.0334
     17 C          -3.8767   -2.4457    0.0005 C.2     1  LIG1        0.0604
     18 N          -2.5238   -2.1913    0.0002 N.pl3   1  LIG1       -0.3137
     19 H          -1.8081   -2.8811   -0.0004 H       1  LIG1        0.1520
     20 C          -3.7520    1.0602   -0.0003 C.3     3  LIG3       -0.0681
     21 H          -4.6729    1.2662    0.5041 H       1  LIG1        0.0227
     22 H          -3.8116    1.4119   -1.0091 H       1  LIG1        0.0227
     23 H          -2.9500    1.5575    0.5041 H       1  LIG1        0.0227
     24 S          -5.8179   -1.0837    0.0025 S.2     1  LIG1       -0.0537
     25 H          -6.4122   -2.2511    0.0029 H       4  UNK4        0.0000
     26 C          -4.3398   -3.6604    0.0012 C.2     1  LIG1        0.0406
     27 C          -5.6205   -4.1161    0.0179 C.3     1  LIG1        0.0731
     28 C          -5.5654   -5.5470    0.0109 C.2     1  LIG1        0.0203
     29 C          -4.2536   -5.9029   -0.0115 C.3     1  LIG1        0.1333
     30 N          -3.4998   -4.7509   -0.0171 N.pl3   1  LIG1       -0.3280
     31 H          -2.5066   -4.7126   -0.0325 H       1  LIG1        0.1472
     32 C          -6.6951   -3.3842    0.0381 C.3     5  LIG5       -0.0681
     33 H          -7.4751   -3.9099    0.5481 H       2  UNK2        0.0227
     34 H          -7.0029   -3.1747   -0.9650 H       2  UNK2        0.0227
     35 H          -6.4915   -2.4658    0.5480 H       2  UNK2        0.0227
     36 S          -6.5803   -6.3592    0.0232 S.2     1  LIG1       -0.0576
     37 H          -6.1501   -7.5966    0.0273 H       6  UNK6        0.0000
     38 C          -3.6985   -7.0783   -0.0256 C.ar    1  LIG1        0.0563
     39 C          -4.2574   -8.3175   -0.0355 C.ar    1  LIG1        0.0212
     40 C          -3.1874   -9.2691   -0.0484 C.ar    1  LIG1        0.0302
     41 C          -2.0218   -8.5696   -0.0476 C.ar    1  LIG1        0.0158
     42 N          -2.3301   -7.2280   -0.0332 N.ar    1  LIG1       -0.3609
     43 H          -1.6695   -6.4853   -0.0295 H       1  LIG1        0.1651
     44 H          -0.7895   -8.9837   -0.0567 H       1  LIG1        0.0818
     45 C          -5.5298   -8.5854   -0.0321 C.3     7  LIG7       -0.0681
     46 H          -5.6976   -9.5135    0.4732 H       3  LIG3        0.0227
     47 H          -5.8814   -8.6595   -1.0401 H       3  LIG3        0.0227
     48 H          -6.0575   -7.8037    0.4732 H       3  LIG3        0.0227
     49 S          -3.3050  -10.5637   -0.0593 S.3     1  LIG1       -0.1406
     50 H          -2.1148  -11.1109   -0.0630 H       1  LIG1        0.1072
@<TRIPOS>BOND
     1    47    45    1
     2    22    20    1
     3    10     8    1
     4    34    32    1
     5    50    49    1
     6    49    40    1
     7    44    41    1
     8    40    41   ar
     9    40    39   ar
    10    41    42   ar
    11    39    38   ar
    12    42    43    1
    13    42    38   ar
    14    31    30    1
    15    45    48    1
    16    45    46    1
    17    38    29    1
    18    30    29    1
    19    30    26    1
    20    29    28    1
    21     2     8    1
    22     2     1    2
    23     2     3    1
    24    19    18    1
    25    15    14    1
    26    15    16    1
    27     8    11    1
    28     8     9    1
    29     6     5    1
    30     4    14    2
    31     4     5    1
    32     4     3    1
    33    20    23    1
    34    20    21    1
    35    14    18    1
    36     5     1    1
    37    18    17    1
    38     1     7    1
    39     3    12    2
    40    17    16    1
    41    17    26    2
    42    16    24    2
    43    26    27    1
    44    28    27    1
    45    28    36    2
    46    32    35    1
    47    32    33    1
