@<TRIPOS>MOLECULE
mol_data/noopt/geoms/mol2/13ig13ig13ig13ig-.out
 50 47 0 0 0
SMALL
GASTEIGER

@<TRIPOS>ATOM
      1 C           1.1215   -0.3259    0.0002 C.2     1  LIG1       -0.0021
      2 C           0.7176    0.9721   -0.0005 C.2     1  LIG1       -0.0206
      3 C          -0.7144    0.9744    0.0003 C.2     1  LIG1        0.0457
      4 C          -1.1226   -0.3223   -0.0003 C.2     1  LIG1        0.0638
      5 N          -0.0018   -1.1217    0.0001 N.pl3   1  LIG1       -0.3182
      6 H          -0.0034   -2.1157   -0.0003 H       1  LIG1        0.1517
      7 H           2.3167   -0.8373    0.0007 H       1  LIG1        0.0784
      8 C           1.4920    2.0167   -0.0003 C.3     1  LIG1       -0.0374
      9 H           1.0026    2.8234    0.5042 H       1  LIG1        0.0278
     10 H           1.7045    2.3034   -1.0091 H       1  LIG1        0.0278
     11 H           2.4062    1.7828    0.5041 H       1  LIG1        0.0278
     12 S          -1.4853    2.0211    0.0010 S.2     1  LIG1       -0.0497
     13 H          -2.7389    1.6410    0.0012 H       2  UNK2        0.0000
     14 C          -2.3194   -0.8299   -0.0001 C.2     1  LIG1        0.0444
     15 C          -3.5352   -0.2220    0.0163 C.3     1  LIG1        0.0771
     16 C          -4.5290   -1.2531    0.0088 C.2     1  LIG1        0.0334
     17 C          -3.8768   -2.4456   -0.0136 C.2     1  LIG1        0.0604
     18 N          -2.5238   -2.1911   -0.0187 N.pl3   1  LIG1       -0.3137
     19 H          -1.8082   -2.8808   -0.0339 H       1  LIG1        0.1520
     20 C          -3.7519    1.0599    0.0366 C.3     3  LIG3       -0.0681
     21 H          -4.6715    1.2582    0.5466 H       1  LIG1        0.0227
     22 H          -3.8141    1.4271   -0.9665 H       1  LIG1        0.0227
     23 H          -2.9486    1.5494    0.5465 H       1  LIG1        0.0227
     24 S          -5.8178   -1.0839    0.0207 S.2     1  LIG1       -0.0537
     25 H          -6.4121   -2.2513    0.0247 H       4  UNK4        0.0000
     26 C          -4.3399   -3.6602   -0.0280 C.2     1  LIG1        0.0406
     27 C          -5.6207   -4.1157   -0.0381 C.3     1  LIG1        0.0731
     28 C          -5.5656   -5.5466   -0.0513 C.2     1  LIG1        0.0203
     29 C          -4.2537   -5.9026   -0.0505 C.3     1  LIG1        0.1333
     30 N          -3.4998   -4.7508   -0.0358 N.pl3   1  LIG1       -0.3280
     31 H          -2.5065   -4.7126   -0.0320 H       1  LIG1        0.1472
     32 C          -6.6954   -3.3837   -0.0347 C.3     5  LIG5       -0.0681
     33 H          -7.4809   -3.9058    0.4707 H       2  UNK2        0.0227
     34 H          -6.9924   -3.1815   -1.0426 H       2  UNK2        0.0227
     35 H          -6.4973   -2.4616    0.4706 H       2  UNK2        0.0227
     36 S          -6.5807   -6.3587   -0.0626 S.2     1  LIG1       -0.0576
     37 H          -6.1507   -7.5961   -0.0664 H       6  UNK6        0.0000
     38 C          -3.6985   -7.0781   -0.0599 C.ar    1  LIG1        0.0563
     39 C          -4.2574   -8.3173   -0.0667 C.ar    1  LIG1        0.0212
     40 C          -3.1873   -9.2689   -0.0749 C.ar    1  LIG1        0.0302
     41 C          -2.0217   -8.5694   -0.0746 C.ar    1  LIG1        0.0158
     42 N          -2.3301   -7.2277   -0.0649 N.ar    1  LIG1       -0.3609
     43 H          -1.6695   -6.4850   -0.0627 H       1  LIG1        0.1651
     44 H          -0.7894   -8.9834   -0.0805 H       1  LIG1        0.0818
     45 C          -5.5298   -8.5852   -0.0644 C.3     7  LIG7       -0.0681
     46 H          -5.6979   -9.5134    0.4407 H       3  LIG3        0.0227
     47 H          -5.8805   -8.6592   -1.0726 H       3  LIG3        0.0227
     48 H          -6.0579   -7.8036    0.4406 H       3  LIG3        0.0227
     49 S          -3.3049  -10.5635   -0.0819 S.3     1  LIG1       -0.1406
     50 H          -2.1146  -11.1106   -0.0842 H       1  LIG1        0.1072
@<TRIPOS>BOND
     1    47    45    1
     2    34    32    1
     3    10     8    1
     4    22    20    1
     5    50    49    1
     6    49    40    1
     7    44    41    1
     8    40    41   ar
     9    40    39   ar
    10    41    42   ar
    11    39    38   ar
    12    42    43    1
    13    42    38   ar
    14    45    48    1
    15    45    46    1
    16    36    28    2
    17    38    29    1
    18    28    29    1
    19    28    27    1
    20    29    30    1
    21    27    26    1
    22    30    31    1
    23    30    26    1
    24    32    35    1
    25    32    33    1
    26    19    18    1
    27    26    17    2
    28    18    17    1
    29    18    14    1
    30    17    16    1
    31     2     8    1
    32     2     1    2
    33     2     3    1
    34     4    14    2
    35     4     5    1
    36     4     3    1
    37     6     5    1
    38     8    11    1
    39     8     9    1
    40    14    15    1
    41     5     1    1
    42     1     7    1
    43     3    12    2
    44    16    15    1
    45    16    24    2
    46    20    23    1
    47    20    21    1
