@<TRIPOS>MOLECULE
mol_data/noopt/geoms/mol2/13ig13ig.out
 26 25 0 0 0
SMALL
GASTEIGER

@<TRIPOS>ATOM
      1 C           1.1215   -0.3259    0.0002 C.2     1  LIG1       -0.0058
      2 C           0.7176    0.9721   -0.0005 C.2     1  LIG1       -0.0242
      3 C          -0.7144    0.9744    0.0003 C.2     1  LIG1        0.0325
      4 C          -1.1226   -0.3223   -0.0003 C.3     1  LIG1        0.1364
      5 N          -0.0018   -1.1217    0.0001 N.pl3   1  LIG1       -0.3324
      6 H          -0.0034   -2.1157   -0.0003 H       1  LIG1        0.1468
      7 H           2.3167   -0.8373    0.0007 H       1  LIG1        0.0781
      8 C           1.4920    2.0167   -0.0003 C.3     1  LIG1       -0.0377
      9 H           1.0026    2.8234    0.5042 H       1  LIG1        0.0278
     10 H           1.7045    2.3034   -1.0091 H       1  LIG1        0.0278
     11 H           2.4062    1.7828    0.5041 H       1  LIG1        0.0278
     12 S          -1.4853    2.0211    0.0010 S.2     1  LIG1       -0.0536
     13 H          -2.7389    1.6410    0.0012 H       2  UNK2        0.0000
     14 C          -2.3194   -0.8299   -0.0001 C.ar    1  LIG1        0.0566
     15 C          -3.5352   -0.2220    0.0163 C.ar    1  LIG1        0.0212
     16 C          -4.5290   -1.2531    0.0088 C.ar    1  LIG1        0.0302
     17 C          -3.8768   -2.4456   -0.0136 C.ar    1  LIG1        0.0158
     18 N          -2.5238   -2.1911   -0.0187 N.ar    1  LIG1       -0.3609
     19 H          -1.8082   -2.8808   -0.0339 H       1  LIG1        0.1651
     20 H          -4.3399   -3.6602   -0.0280 H       1  LIG1        0.0818
     21 C          -3.7519    1.0599    0.0366 C.3     3  LIG3       -0.0681
     22 H          -4.6715    1.2582    0.5466 H       1  LIG1        0.0227
     23 H          -3.8141    1.4271   -0.9665 H       1  LIG1        0.0227
     24 H          -2.9486    1.5494    0.5465 H       1  LIG1        0.0227
     25 S          -5.8178   -1.0839    0.0207 S.3     1  LIG1       -0.1406
     26 H          -6.4121   -2.2513    0.0247 H       1  LIG1        0.1072
@<TRIPOS>BOND
     1    10     8    1
     2    23    21    1
     3    19    18    1
     4    20    17    1
     5    18    17   ar
     6    18    14   ar
     7    17    16   ar
     8     2     8    1
     9     2     1    2
    10     2     3    1
    11     4    14    1
    12     4     5    1
    13     4     3    1
    14     6     5    1
    15     8    11    1
    16     8     9    1
    17    14    15   ar
    18     5     1    1
    19     1     7    1
    20     3    12    2
    21    16    15   ar
    22    16    25    1
    23    25    26    1
    24    21    24    1
    25    21    22    1
