@<TRIPOS>MOLECULE
mol_data/noopt/geoms/mol2/13ig.out
 14 14 0 0 0
SMALL
GASTEIGER

@<TRIPOS>ATOM
      1 C           1.1215   -0.3259    0.0002 C.ar    1  LIG1        0.0056
      2 C           0.7176    0.9721   -0.0005 C.ar    1  LIG1       -0.0200
      3 C          -0.7144    0.9744    0.0003 C.ar    1  LIG1        0.0250
      4 C          -1.1226   -0.3223   -0.0003 C.ar    1  LIG1        0.0152
      5 N          -0.0018   -1.1217    0.0001 N.ar    1  LIG1       -0.3658
      6 H          -0.0034   -2.1157   -0.0003 H       1  LIG1        0.1648
      7 H          -2.3194   -0.8299   -0.0001 H       1  LIG1        0.0818
      8 H           2.3167   -0.8373    0.0007 H       1  LIG1        0.0810
      9 C           1.4920    2.0167   -0.0003 C.3     1  LIG1       -0.0373
     10 H           1.0026    2.8234    0.5042 H       1  LIG1        0.0278
     11 H           1.7045    2.3034   -1.0091 H       1  LIG1        0.0278
     12 H           2.4062    1.7828    0.5041 H       1  LIG1        0.0278
     13 S          -1.4853    2.0211    0.0010 S.3     1  LIG1       -0.1409
     14 H          -2.7389    1.6410    0.0012 H       1  LIG1        0.1072
@<TRIPOS>BOND
     1    11     9    1
     2     2     9    1
     3     2     1   ar
     4     2     3   ar
     5     4     7    1
     6     4     5   ar
     7     4     3   ar
     8     6     5    1
     9     9    12    1
    10     9    10    1
    11     5     1   ar
    12     1     8    1
    13     3    13    1
    14    13    14    1
