@<TRIPOS>MOLECULE
mol_data/noopt/geoms/mol2/13ig13ig-13ig13ig.out
 50 47 0 0 0
SMALL
GASTEIGER

@<TRIPOS>ATOM
      1 C           1.1215   -0.3259    0.0002 C.2     1  LIG1       -0.0021
      2 C           0.7176    0.9721   -0.0005 C.2     1  LIG1       -0.0206
      3 C          -0.7144    0.9744    0.0003 C.2     1  LIG1        0.0457
      4 C          -1.1226   -0.3223   -0.0003 C.2     1  LIG1        0.0638
      5 N          -0.0018   -1.1217    0.0001 N.pl3   1  LIG1       -0.3182
      6 H          -0.0034   -2.1157   -0.0003 H       1  LIG1        0.1517
      7 H           2.3167   -0.8373    0.0007 H       1  LIG1        0.0784
      8 C           1.4920    2.0167   -0.0003 C.3     1  LIG1       -0.0374
      9 H           1.0026    2.8234    0.5042 H       1  LIG1        0.0278
     10 H           1.7045    2.3034   -1.0091 H       1  LIG1        0.0278
     11 H           2.4062    1.7828    0.5041 H       1  LIG1        0.0278
     12 S          -1.4853    2.0211    0.0010 S.2     1  LIG1       -0.0497
     13 H          -2.7389    1.6410    0.0012 H       2  UNK2        0.0000
     14 C          -2.3194   -0.8299   -0.0001 C.2     1  LIG1        0.0444
     15 C          -3.5353   -0.2219   -0.0003 C.3     1  LIG1        0.0771
     16 C          -4.5290   -1.2530    0.0012 C.2     1  LIG1        0.0334
     17 C          -3.8767   -2.4457    0.0005 C.2     1  LIG1        0.0604
     18 N          -2.5238   -2.1913    0.0002 N.pl3   1  LIG1       -0.3137
     19 H          -1.8081   -2.8811   -0.0004 H       1  LIG1        0.1520
     20 C          -3.7520    1.0602   -0.0003 C.3     3  LIG3       -0.0681
     21 H          -4.6729    1.2662    0.5041 H       1  LIG1        0.0227
     22 H          -3.8116    1.4119   -1.0091 H       1  LIG1        0.0227
     23 H          -2.9500    1.5575    0.5041 H       1  LIG1        0.0227
     24 S          -5.8179   -1.0837    0.0025 S.2     1  LIG1       -0.0537
     25 H          -6.4122   -2.2511    0.0029 H       4  UNK4        0.0000
     26 C          -4.3398   -3.6604    0.0012 C.2     1  LIG1        0.0406
     27 C          -5.6206   -4.1160    0.0013 C.3     1  LIG1        0.0731
     28 C          -5.5655   -5.5470    0.0033 C.2     1  LIG1        0.0203
     29 C          -4.2535   -5.9029    0.0026 C.3     1  LIG1        0.1333
     30 N          -3.4996   -4.7510    0.0018 N.pl3   1  LIG1       -0.3280
     31 H          -2.5064   -4.7127    0.0010 H       1  LIG1        0.1472
     32 C          -6.6953   -3.3841    0.0012 C.3     5  LIG5       -0.0681
     33 H          -7.4819   -3.9054    0.5056 H       2  UNK2        0.0227
     34 H          -6.9901   -3.1834   -1.0076 H       2  UNK2        0.0227
     35 H          -6.4984   -2.4612    0.5056 H       2  UNK2        0.0227
     36 S          -6.5805   -6.3592    0.0050 S.2     1  LIG1       -0.0576
     37 H          -6.1504   -7.5965    0.0056 H       6  UNK6        0.0000
     38 C          -3.6983   -7.0784    0.0036 C.ar    1  LIG1        0.0563
     39 C          -4.2570   -8.3176    0.0205 C.ar    1  LIG1        0.0212
     40 C          -3.1869   -9.2692    0.0139 C.ar    1  LIG1        0.0302
     41 C          -2.0215   -8.5697   -0.0086 C.ar    1  LIG1        0.0158
     42 N          -2.3300   -7.2281   -0.0145 N.ar    1  LIG1       -0.3609
     43 H          -1.6695   -6.4854   -0.0300 H       1  LIG1        0.1651
     44 H          -0.7893   -8.9838   -0.0224 H       1  LIG1        0.0818
     45 C          -5.5292   -8.5855    0.0407 C.3     7  LIG7       -0.0681
     46 H          -5.6905   -9.5122    0.5506 H       3  LIG3        0.0227
     47 H          -5.8935   -8.6623   -0.9625 H       3  LIG3        0.0227
     48 H          -6.0505   -7.8024    0.5505 H       3  LIG3        0.0227
     49 S          -3.3044  -10.5638    0.0265 S.3     1  LIG1       -0.1406
     50 H          -2.1140  -11.1108    0.0307 H       1  LIG1        0.1072
@<TRIPOS>BOND
     1    22    20    1
     2    10     8    1
     3    34    32    1
     4    47    45    1
     5    43    42    1
     6    44    41    1
     7    42    41   ar
     8    42    38   ar
     9    41    40   ar
    10     2     8    1
    11     2     1    2
    12     2     3    1
    13    19    18    1
    14    15    14    1
    15    15    16    1
    16     8    11    1
    17     8     9    1
    18     6     5    1
    19     4    14    2
    20     4     5    1
    21     4     3    1
    22    20    23    1
    23    20    21    1
    24    14    18    1
    25     5     1    1
    26    18    17    1
    27     1     7    1
    28     3    12    2
    29    17    16    1
    30    17    26    2
    31    31    30    1
    32    16    24    2
    33    26    27    1
    34    26    30    1
    35    32    35    1
    36    32    33    1
    37    27    28    1
    38    30    29    1
    39    29    28    1
    40    29    38    1
    41    28    36    2
    42    38    39   ar
    43    40    39   ar
    44    40    49    1
    45    49    50    1
    46    45    48    1
    47    45    46    1
