@<TRIPOS>MOLECULE
mol_data/noopt/geoms/mol2/13ih13ih-13ih.out
 41 43 0 0 0
SMALL
GASTEIGER

@<TRIPOS>ATOM
      1 C           1.1215   -0.3259    0.0002 C.ar    1  LIG1        0.0069
      2 C           0.7176    0.9721   -0.0005 C.ar    1  LIG1       -0.0118
      3 C          -0.7144    0.9744    0.0003 C.ar    1  LIG1        0.0546
      4 C          -1.1226   -0.3223   -0.0003 C.ar    1  LIG1        0.0844
      5 N          -0.0018   -1.1217    0.0001 N.ar    1  LIG1       -0.3578
      6 H          -0.0034   -2.1157   -0.0003 H       1  LIG1        0.1654
      7 H           2.3167   -0.8373    0.0007 H       1  LIG1        0.0810
      8 C           1.4920    2.0167   -0.0003 C.3     1  LIG1       -0.0365
      9 H           1.0026    2.8234    0.5042 H       1  LIG1        0.0279
     10 H           1.7045    2.3034   -1.0091 H       1  LIG1        0.0279
     11 H           2.4062    1.7828    0.5041 H       1  LIG1        0.0279
     12 N          -1.4853    2.0212    0.0010 N.pl3   1  LIG1       -0.3561
     13 H          -1.0256    2.7740   -0.4702 H       1  LIG1        0.1424
     14 H          -2.3405    1.8056   -0.4703 H       1  LIG1        0.1424
     15 C          -2.3194   -0.8299   -0.0001 C.ar    1  LIG1        0.0699
     16 C          -2.7274   -2.1266   -0.0005 C.ar    1  LIG1       -0.0024
     17 C          -4.1594   -2.1244    0.0011 C.ar    1  LIG1        0.0552
     18 C          -4.5635   -0.8264    0.0006 C.ar    1  LIG1        0.0849
     19 N          -3.4402   -0.0305    0.0003 N.ar    1  LIG1       -0.3501
     20 H          -3.4386    0.9635   -0.0001 H       1  LIG1        0.1661
     21 C          -1.9564   -3.1736   -0.0006 C.3     1  LIG1       -0.0359
     22 H          -1.0413   -2.9428    0.5038 H       1  LIG1        0.0279
     23 H          -1.7448   -3.4607   -1.0095 H       1  LIG1        0.0279
     24 H          -2.4483   -3.9789    0.5037 H       1  LIG1        0.0279
     25 N          -4.9336   -3.1687    0.0023 N.pl3   1  LIG1       -0.3561
     26 H          -5.7883   -2.9506   -0.4688 H       1  LIG1        0.1424
     27 H          -4.4765   -3.9231   -0.4688 H       1  LIG1        0.1424
     28 C          -5.7587   -0.3150    0.0014 C.ar    1  LIG1        0.0695
     29 C          -6.1626    0.9830    0.0016 C.ar    1  LIG1       -0.0031
     30 C          -7.5946    0.9853    0.0038 C.ar    1  LIG1        0.0457
     31 C          -8.0028   -0.3114    0.0030 C.ar    1  LIG1        0.0233
     32 N          -6.8820   -1.1108    0.0021 N.ar    1  LIG1       -0.3576
     33 H          -6.8836   -2.1048    0.0013 H       1  LIG1        0.1654
     34 H          -9.1996   -0.8190    0.0041 H       1  LIG1        0.0826
     35 C          -5.3882    2.0276    0.0015 C.3     1  LIG1       -0.0359
     36 H          -5.8776    2.8344    0.5059 H       1  LIG1        0.0279
     37 H          -5.1759    2.3141   -1.0073 H       1  LIG1        0.0279
     38 H          -4.4739    1.7938    0.5059 H       1  LIG1        0.0279
     39 N          -8.3655    2.0321    0.0056 N.pl3   1  LIG1       -0.3566
     40 H          -7.9061    2.7852   -0.4653 H       1  LIG1        0.1424
     41 H          -9.2210    1.8169   -0.4654 H       1  LIG1        0.1424
@<TRIPOS>BOND
     1    23    21    1
     2    10     8    1
     3    37    35    1
     4    14    12    1
     5    13    12    1
     6    27    25    1
     7    26    25    1
     8    41    39    1
     9    40    39    1
    10    21    16    1
    11    21    24    1
    12    21    22    1
    13     2     8    1
    14     2     1   ar
    15     2     3   ar
    16    16    15   ar
    17    16    17   ar
    18     6     5    1
    19     4    15    1
    20     4     5   ar
    21     4     3   ar
    22     8    11    1
    23     8     9    1
    24    20    19    1
    25    15    19   ar
    26     5     1   ar
    27     1     7    1
    28     3    12    1
    29    19    18   ar
    30    18    17   ar
    31    18    28    1
    32    17    25    1
    33    33    32    1
    34    28    29   ar
    35    28    32   ar
    36    35    29    1
    37    35    38    1
    38    35    36    1
    39    29    30   ar
    40    32    31   ar
    41    31    30   ar
    42    31    34    1
    43    30    39    1
