@<TRIPOS>MOLECULE
mol_data/noopt/geoms/mol2/13ih12eh-13el-12ld-6ia-6hh-12he-12ah-.out
 97 102 0 0 0
SMALL
GASTEIGER

@<TRIPOS>ATOM
      1 C           1.1215   -0.3259    0.0002 C.ar    1  LIG1        0.0070
      2 C           0.7176    0.9721   -0.0005 C.ar    1  LIG1       -0.0118
      3 C          -0.7144    0.9744    0.0003 C.ar    1  LIG1        0.0562
      4 C          -1.1226   -0.3223   -0.0003 C.ar    1  LIG1        0.1046
      5 N          -0.0018   -1.1217    0.0001 N.ar    1  LIG1       -0.3565
      6 H          -0.0034   -2.1157   -0.0003 H       1  LIG1        0.1655
      7 H           2.3167   -0.8373    0.0007 H       1  LIG1        0.0810
      8 C           1.4920    2.0167   -0.0003 C.3     1  LIG1       -0.0365
      9 H           1.0026    2.8234    0.5042 H       1  LIG1        0.0279
     10 H           1.7045    2.3034   -1.0091 H       1  LIG1        0.0279
     11 H           2.4062    1.7828    0.5041 H       1  LIG1        0.0279
     12 N          -1.4853    2.0212    0.0010 N.pl3   1  LIG1       -0.3560
     13 H          -1.0256    2.7740   -0.4702 H       1  LIG1        0.1424
     14 H          -2.3405    1.8056   -0.4703 H       1  LIG1        0.1424
     15 C          -2.3194   -0.8299   -0.0001 C.ar    1  LIG1        0.1708
     16 C          -3.6025   -0.3232    0.0001 C.ar    1  LIG1        0.0932
     17 C          -4.4979   -1.4613    0.0002 C.ar    1  LIG1        0.0888
     18 C          -3.7022   -2.5884    0.0001 C.ar    1  LIG1        0.1748
     19 O          -2.3550   -2.2250   -0.0002 O.2     1  LIG1       -0.4486
     20 C          -3.9649    0.9252    0.0001 C.1     1  LIG1       -0.0639
     21 C          -4.2998    2.0788    0.0002 C.1     1  LIG1       -0.1137
     22 H          -4.5981    3.1064    0.0003 H       1  LIG1        0.1232
     23 N          -5.7966   -1.4035    0.0004 N.pl3   1  LIG1       -0.3540
     24 H          -6.0934   -0.5730   -0.4709 H       1  LIG1        0.1425
     25 H          -6.1659   -2.2043   -0.4710 H       1  LIG1        0.1425
     26 C          -3.9132   -3.8712    0.0002 C.ar    1  LIG1        0.1007
     27 C          -5.0769   -4.5736    0.0165 C.ar    1  LIG1        0.0615
     28 C          -4.7371   -5.9646    0.0089 C.ar    1  LIG1        0.0300
     29 C          -3.3806   -6.0511   -0.0134 C.ar    1  LIG1        0.0955
     30 N          -2.8722   -4.7718   -0.0184 N.ar    1  LIG1       -0.3477
     31 H          -1.9067   -4.5358   -0.0337 H       1  LIG1        0.1661
     32 C          -6.2758   -4.0713    0.0369 C.1     1  LIG1       -0.0668
     33 C          -7.3836   -3.6073    0.0557 C.1     1  LIG1       -0.1138
     34 H          -8.3704   -3.1939    0.0725 H       1  LIG1        0.1232
     35 O          -5.5692   -6.9633    0.0207 O.3     2  HOH2        0.0000
     36 C          -6.9104   -6.4671    0.0250 C.3     3  LIG3       -0.0681
     37 H          -7.5950   -7.2894    0.0346 H       1  LIG1        0.0227
     38 H          -7.0649   -5.8642    0.8955 H       1  LIG1        0.0227
     39 H          -7.0749   -5.8762   -0.8517 H       1  LIG1        0.0227
     40 C          -2.6018   -7.0920   -0.0279 C.ar    1  LIG1        0.1951
     41 C          -2.7874   -8.4589   -0.0388 C.ar    1  LIG1        0.1852
     42 C          -1.4684   -9.0564   -0.0529 C.ar    1  LIG1        0.1397
     43 C          -0.5640   -8.0145   -0.0497 C.ar    1  LIG1        0.1585
     44 O          -1.2386   -6.7933   -0.0345 O.2     1  LIG1       -0.4481
     45 O          -3.9131   -9.1091   -0.0370 O.3     1  LIG1       -0.4901
     46 C          -5.0006   -8.1805   -0.0364 C.3     1  LIG1        0.0790
     47 H          -5.9270   -8.7161   -0.0351 H       1  LIG1        0.0660
     48 H          -4.9434   -7.5648    0.8369 H       1  LIG1        0.0660
     49 H          -4.9453   -7.5658   -0.9104 H       1  LIG1        0.0660
     50 N          -0.9902  -11.4557   -0.0774 N.1     1  LIG1       -0.1906
     51 C          -1.2143  -10.3313   -0.0659 C.1     1  LIG1        0.1067
     52 C           1.3460   -6.6474   -0.0827 C.ar    1  LIG1        0.0496
     53 C           0.7320   -7.9130   -0.0575 C.ar    1  LIG1        0.0397
     54 C           1.5447   -9.0480   -0.0407 C.ar    1  LIG1       -0.0473
     55 C           2.9307   -8.8823   -0.0499 C.ar    1  LIG1       -0.0349
     56 C           3.4506   -7.5752   -0.0756 C.ar    1  LIG1        0.0746
     57 N           2.6813   -6.4692   -0.0918 N.ar    1  LIG1       -0.2511
     58 H           1.1010  -10.0535   -0.0219 H       1  LIG1        0.0626
     59 C           0.6316   -5.5610   -0.0989 C.3     1  LIG1       -0.0216
     60 H          -0.2977   -5.7378    0.4011 H       1  LIG1        0.0293
     61 H           0.4425   -5.2735   -1.1121 H       1  LIG1        0.0293
     62 H           1.1622   -4.7778    0.4010 H       1  LIG1        0.0293
     63 H           3.7302   -9.9073   -0.0353 H       1  LIG1        0.0639
     64 C           5.2442   -6.0587   -0.1111 C.ar    1  LIG1        0.1263
     65 C           4.7342   -7.3696   -0.0850 C.ar    1  LIG1        0.0416
     66 C           5.6356   -8.4355   -0.0691 C.ar    1  LIG1       -0.0264
     67 C           7.0038   -8.1587   -0.0800 C.ar    1  LIG1        0.0548
     68 C           7.4167   -6.8140   -0.1065 C.ar    1  LIG1        0.1305
     69 N           6.5608   -5.7735   -0.1219 N.ar    1  LIG1       -0.2268
     70 H           5.2744   -9.4735   -0.0496 H       1  LIG1        0.0644
     71 N           4.4448   -5.0336   -0.1265 N.pl3   1  LIG1       -0.3426
     72 H           4.8871   -4.2731   -0.6018 H       1  LIG1        0.1437
     73 H           3.5995   -5.2773   -0.6018 H       1  LIG1        0.1437
     74 N           7.8833   -9.1160   -0.0663 N.pl3   1  LIG1       -0.3562
     75 H           7.5108   -9.9175   -0.5341 H       1  LIG1        0.1424
     76 H           8.7134   -8.8128   -0.5341 H       1  LIG1        0.1424
     77 C           8.6795   -6.5056   -0.1174 C.ar    1  LIG1        0.1776
     78 C           9.8644   -7.2121   -0.1109 C.ar    1  LIG1        0.0889
     79 C          10.9312   -6.2331   -0.1322 C.ar    1  LIG1        0.0948
     80 C          10.3272   -4.9928   -0.1505 C.ar    1  LIG1        0.1878
     81 O           8.9391   -5.1346   -0.1419 O.2     1  LIG1       -0.4469
     82 N          10.0213   -8.5025   -0.0898 N.pl3   1  LIG1       -0.3540
     83 H           9.2519   -8.9395   -0.5557 H       1  LIG1        0.1425
     84 H          10.8729   -8.7424   -0.5557 H       1  LIG1        0.1425
     85 C          12.2037   -6.4991   -0.1335 C.1     1  LIG1       -0.0639
     86 C          13.3795   -6.7449   -0.1347 C.1     1  LIG1       -0.1137
     87 H          14.4268   -6.9638   -0.1357 H       1  LIG1        0.1232
     88 C          10.7418   -3.7609   -0.1731 C.ar    1  LIG1        0.1728
     89 C          11.9723   -3.1376   -0.1902 C.ar    1  LIG1        0.0080
     90 C          11.7153   -1.7127   -0.2123 C.ar    1  LIG1        0.0635
     91 C          10.3441   -1.5597   -0.2073 C.ar    1  LIG1        0.1133
     92 O           9.7218   -2.8084   -0.1834 O.2     1  LIG1       -0.4579
     93 H           9.5246   -0.5506   -0.2194 H       1  LIG1        0.1049
     94 H          13.1467   -3.6951   -0.1874 H       1  LIG1        0.0675
     95 N          12.6205   -0.7798   -0.2327 N.pl3   1  LIG1       -0.3555
     96 H          13.4334   -1.1145   -0.7093 H       1  LIG1        0.1424
     97 H          12.2614    0.0226   -0.7094 H       1  LIG1        0.1424
@<TRIPOS>BOND
     1    61    59    1
     2    10     8    1
     3    49    46    1
     4    39    36    1
     5    97    95    1
     6    96    95    1
     7    73    71    1
     8    72    71    1
     9    84    82    1
    10    83    82    1
    11    76    74    1
    12    75    74    1
    13    25    23    1
    14    24    23    1
    15    14    12    1
    16    13    12    1
    17    95    90    1
    18    93    91    1
    19    90    91   ar
    20    90    89   ar
    21    91    92   ar
    22    89    94    1
    23    89    88   ar
    24    92    88   ar
    25    88    80    1
    26    80    81   ar
    27    80    79   ar
    28    81    77   ar
    29    87    86    1
    30    86    85    3
    31    85    79    1
    32    79    78   ar
    33    71    64    1
    34    69    64   ar
    35    69    68   ar
    36    77    78   ar
    37    77    68    1
    38    64    65   ar
    39    78    82    1
    40    68    67   ar
    41    59    52    1
    42    59    62    1
    43    59    60    1
    44    57    52   ar
    45    57    56   ar
    46    65    56    1
    47    65    66   ar
    48    52    53   ar
    49    67    66   ar
    50    67    74    1
    51    50    51    3
    52    56    55   ar
    53    66    70    1
    54    51    42    1
    55    53    43    1
    56    53    54   ar
    57    42    43   ar
    58    42    41   ar
    59    55    54   ar
    60    55    63    1
    61    43    44   ar
    62    54    58    1
    63    41    45    1
    64    41    40   ar
    65    45    46    1
    66    46    47    1
    67    46    48    1
    68    44    40   ar
    69    31    30    1
    70    40    29    1
    71    30    29   ar
    72    30    26   ar
    73    29    28   ar
    74     2     8    1
    75     2     1   ar
    76     2     3   ar
    77     6     5    1
    78     8    11    1
    79     8     9    1
    80     4    15    1
    81     4     5   ar
    82     4     3   ar
    83    19    15   ar
    84    19    18   ar
    85    15    16   ar
    86    16    20    1
    87    16    17   ar
    88     5     1   ar
    89    18    26    1
    90    18    17   ar
    91    20    21    3
    92    21    22    1
    93     1     7    1
    94    26    27   ar
    95    17    23    1
    96     3    12    1
    97    28    27   ar
    98    27    32    1
    99    36    37    1
   100    36    38    1
   101    32    33    3
   102    33    34    1
