@<TRIPOS>MOLECULE
mol_data/noopt/geoms/mol2/13ih13ih-.out
 28 29 0 0 0
SMALL
GASTEIGER

@<TRIPOS>ATOM
      1 C           1.1215   -0.3259    0.0002 C.ar    1  LIG1        0.0069
      2 C           0.7176    0.9721   -0.0005 C.ar    1  LIG1       -0.0118
      3 C          -0.7144    0.9744    0.0003 C.ar    1  LIG1        0.0546
      4 C          -1.1226   -0.3223   -0.0003 C.ar    1  LIG1        0.0844
      5 N          -0.0018   -1.1217    0.0001 N.ar    1  LIG1       -0.3578
      6 H          -0.0034   -2.1157   -0.0003 H       1  LIG1        0.1654
      7 H           2.3167   -0.8373    0.0007 H       1  LIG1        0.0810
      8 C           1.4920    2.0167   -0.0003 C.3     1  LIG1       -0.0365
      9 H           1.0026    2.8234    0.5042 H       1  LIG1        0.0279
     10 H           1.7045    2.3034   -1.0091 H       1  LIG1        0.0279
     11 H           2.4062    1.7828    0.5041 H       1  LIG1        0.0279
     12 N          -1.4853    2.0212    0.0010 N.pl3   1  LIG1       -0.3561
     13 H          -1.0256    2.7740   -0.4702 H       1  LIG1        0.1424
     14 H          -2.3405    1.8056   -0.4703 H       1  LIG1        0.1424
     15 C          -2.3194   -0.8299   -0.0001 C.ar    1  LIG1        0.0694
     16 C          -2.7274   -2.1266   -0.0005 C.ar    1  LIG1       -0.0031
     17 C          -4.1594   -2.1244    0.0011 C.ar    1  LIG1        0.0457
     18 C          -4.5635   -0.8264    0.0006 C.ar    1  LIG1        0.0233
     19 N          -3.4402   -0.0305    0.0003 N.ar    1  LIG1       -0.3576
     20 H          -3.4386    0.9635   -0.0001 H       1  LIG1        0.1654
     21 H          -5.7587   -0.3150    0.0014 H       1  LIG1        0.0826
     22 C          -1.9564   -3.1736   -0.0006 C.3     1  LIG1       -0.0359
     23 H          -1.0413   -2.9428    0.5038 H       1  LIG1        0.0279
     24 H          -1.7448   -3.4607   -1.0095 H       1  LIG1        0.0279
     25 H          -2.4483   -3.9789    0.5037 H       1  LIG1        0.0279
     26 N          -4.9336   -3.1687    0.0023 N.pl3   1  LIG1       -0.3566
     27 H          -5.7883   -2.9506   -0.4688 H       1  LIG1        0.1424
     28 H          -4.4765   -3.9231   -0.4688 H       1  LIG1        0.1424
@<TRIPOS>BOND
     1    24    22    1
     2    10     8    1
     3    14    12    1
     4    13    12    1
     5    28    26    1
     6    27    26    1
     7    22    16    1
     8    22    25    1
     9    22    23    1
    10     2     8    1
    11     2     1   ar
    12     2     3   ar
    13    16    15   ar
    14    16    17   ar
    15     4    15    1
    16     4     5   ar
    17     4     3   ar
    18     6     5    1
    19     8    11    1
    20     8     9    1
    21    20    19    1
    22    15    19   ar
    23     5     1   ar
    24     1     7    1
    25     3    12    1
    26    19    18   ar
    27    18    17   ar
    28    18    21    1
    29    17    26    1
