@<TRIPOS>MOLECULE
mol_data/noopt/geoms/mol2/13ih12ih12eh-13lh.out
 52 50 0 0 0
SMALL
GASTEIGER

@<TRIPOS>ATOM
      1 C           1.1215   -0.3259    0.0002 C.ar    1  LIG1        0.0070
      2 C           0.7176    0.9721   -0.0005 C.ar    1  LIG1       -0.0118
      3 C          -0.7144    0.9744    0.0003 C.ar    1  LIG1        0.0562
      4 C          -1.1226   -0.3223   -0.0003 C.ar    1  LIG1        0.1036
      5 N          -0.0018   -1.1217    0.0001 N.ar    1  LIG1       -0.3565
      6 H          -0.0034   -2.1157   -0.0003 H       1  LIG1        0.1655
      7 H           2.3167   -0.8373    0.0007 H       1  LIG1        0.0810
      8 C           1.4920    2.0167   -0.0003 C.3     1  LIG1       -0.0365
      9 H           1.0026    2.8234    0.5042 H       1  LIG1        0.0279
     10 H           1.7045    2.3034   -1.0091 H       1  LIG1        0.0279
     11 H           2.4062    1.7828    0.5041 H       1  LIG1        0.0279
     12 N          -1.4853    2.0212    0.0010 N.pl3   1  LIG1       -0.3560
     13 H          -1.0256    2.7740   -0.4702 H       1  LIG1        0.1424
     14 H          -2.3405    1.8056   -0.4703 H       1  LIG1        0.1424
     15 C          -2.3194   -0.8299   -0.0001 C.ar    1  LIG1        0.1584
     16 C          -3.6024   -0.3233    0.0148 C.ar    1  LIG1        0.0182
     17 C          -4.4979   -1.4613    0.0044 C.ar    1  LIG1        0.0777
     18 C          -3.7022   -2.5883   -0.0164 C.ar    1  LIG1        0.1926
     19 O          -2.3551   -2.2249   -0.0196 O.2     1  LIG1       -0.4480
     20 C          -3.9649    0.9253    0.0347 C.3     1  LIG1       -0.0343
     21 H          -4.9012    1.0169    0.5445 H       1  LIG1        0.0279
     22 H          -4.0687    1.2826   -0.9686 H       1  LIG1        0.0279
     23 H          -3.2231    1.5040    0.5444 H       1  LIG1        0.0279
     24 N          -5.7966   -1.4036    0.0131 N.pl3   1  LIG1       -0.3547
     25 H          -6.0965   -0.5730   -0.4560 H       1  LIG1        0.1424
     26 H          -6.1690   -2.2043   -0.4561 H       1  LIG1        0.1424
     27 C          -3.9133   -3.8709   -0.0331 C.ar    1  LIG1        0.1884
     28 C          -5.0275   -4.6843   -0.0309 C.ar    1  LIG1        0.0820
     29 C          -4.5447   -6.0493   -0.0579 C.ar    1  LIG1        0.0505
     30 C          -3.1668   -5.9794   -0.0748 C.ar    1  LIG1        0.1648
     31 O          -2.7535   -4.6468   -0.0601 O.2     1  LIG1       -0.4482
     32 C          -6.2761   -4.3233   -0.0091 C.1     1  LIG1       -0.0651
     33 C          -7.4299   -3.9896    0.0110 C.1     1  LIG1       -0.1138
     34 H          -8.4576   -3.6924    0.0290 H       1  LIG1        0.1232
     35 N          -5.2879   -7.1158   -0.0644 N.3     2  LIG2       -0.1629
     36 H          -6.1470   -6.9205   -0.5374 H       1  LIG1        0.1629
     37 H          -4.8073   -7.8542   -0.5375 H       2  LIG2        0.0309
     38 C          -2.1958   -6.8434   -0.1006 C.ar    1  LIG1        0.1319
     39 C          -2.2243   -8.2025   -0.1018 C.ar    1  LIG1        0.2275
     40 C          -0.8674   -8.6587   -0.1355 C.ar    1  LIG1        0.0902
     41 C          -0.0693   -7.5584   -0.1552 C.ar    1  LIG1        0.0269
     42 N          -0.8785   -6.4448   -0.1335 N.ar    1  LIG1       -0.3535
     43 H          -0.5619   -5.5026   -0.1410 H       1  LIG1        0.1656
     44 H           1.2263   -7.4564   -0.1875 H       1  LIG1        0.0827
     45 O          -3.2894   -8.9474   -0.0754 O.3     1  LIG1       -0.2836
     46 C          -4.4531   -8.1163   -0.0658 C.3     3  LIG3       -0.0309
     47 H          -5.3295   -8.7298   -0.0443 H       4  UNK4        0.0000
     48 H          -4.4359   -7.4885    0.8005 H       5  UNK5        0.0000
     49 H          -4.4647   -7.5086   -0.9464 H       6  UNK6        0.0000
     50 N          -0.4683   -9.8959   -0.1460 N.pl3   1  LIG1       -0.3538
     51 H          -1.1443  -10.4602   -0.6200 H       1  LIG1        0.1425
     52 H           0.4099   -9.9589   -0.6201 H       1  LIG1        0.1425
@<TRIPOS>BOND
     1    10     8    1
     2    22    20    1
     3    52    50    1
     4    51    50    1
     5    37    46    1
     6    36    35    1
     7    14    12    1
     8    13    12    1
     9    26    24    1
    10    25    24    1
    11    44    41    1
    12    41    40   ar
    13    41    42   ar
    14    50    40    1
    15    43    42    1
    16    40    39   ar
    17    42    38   ar
    18    39    38   ar
    19    39    45    1
    20    38    30    1
    21    30    31   ar
    22    30    29   ar
    23    31    27   ar
    24    29    28   ar
    25    27    28   ar
    26    27    18    1
    27    28    32    1
    28    19    18   ar
    29    19    15   ar
    30    18    17   ar
    31    32    33    3
    32     2     8    1
    33     2     1   ar
    34     2     3   ar
    35     4    15    1
    36     4     5   ar
    37     4     3   ar
    38     6     5    1
    39     8    11    1
    40     8     9    1
    41    15    16   ar
    42     5     1   ar
    43     1     7    1
    44     3    12    1
    45    17    24    1
    46    17    16   ar
    47    33    34    1
    48    16    20    1
    49    20    23    1
    50    20    21    1
