@<TRIPOS>MOLECULE
mol_data/noopt/geoms/mol2/13ih13ih-13ih-13ih.out
 54 57 0 0 0
SMALL
GASTEIGER

@<TRIPOS>ATOM
      1 C           1.1215   -0.3259    0.0002 C.ar    1  LIG1        0.0069
      2 C           0.7176    0.9721   -0.0005 C.ar    1  LIG1       -0.0118
      3 C          -0.7144    0.9744    0.0003 C.ar    1  LIG1        0.0546
      4 C          -1.1226   -0.3223   -0.0003 C.ar    1  LIG1        0.0844
      5 N          -0.0018   -1.1217    0.0001 N.ar    1  LIG1       -0.3578
      6 H          -0.0034   -2.1157   -0.0003 H       1  LIG1        0.1654
      7 H           2.3167   -0.8373    0.0007 H       1  LIG1        0.0810
      8 C           1.4920    2.0167   -0.0003 C.3     1  LIG1       -0.0365
      9 H           1.0026    2.8234    0.5042 H       1  LIG1        0.0279
     10 H           1.7045    2.3034   -1.0091 H       1  LIG1        0.0279
     11 H           2.4062    1.7828    0.5041 H       1  LIG1        0.0279
     12 N          -1.4853    2.0212    0.0010 N.pl3   1  LIG1       -0.3561
     13 H          -1.0256    2.7740   -0.4702 H       1  LIG1        0.1424
     14 H          -2.3405    1.8056   -0.4703 H       1  LIG1        0.1424
     15 C          -2.3194   -0.8299   -0.0001 C.ar    1  LIG1        0.0699
     16 C          -2.7274   -2.1266   -0.0005 C.ar    1  LIG1       -0.0024
     17 C          -4.1594   -2.1244    0.0011 C.ar    1  LIG1        0.0552
     18 C          -4.5635   -0.8264    0.0006 C.ar    1  LIG1        0.0849
     19 N          -3.4402   -0.0305    0.0003 N.ar    1  LIG1       -0.3501
     20 H          -3.4386    0.9635   -0.0001 H       1  LIG1        0.1661
     21 C          -1.9564   -3.1736   -0.0006 C.3     1  LIG1       -0.0359
     22 H          -1.0413   -2.9428    0.5038 H       1  LIG1        0.0279
     23 H          -1.7448   -3.4607   -1.0095 H       1  LIG1        0.0279
     24 H          -2.4483   -3.9789    0.5037 H       1  LIG1        0.0279
     25 N          -4.9336   -3.1687    0.0023 N.pl3   1  LIG1       -0.3561
     26 H          -5.7883   -2.9506   -0.4688 H       1  LIG1        0.1424
     27 H          -4.4765   -3.9231   -0.4688 H       1  LIG1        0.1424
     28 C          -5.7587   -0.3150    0.0014 C.ar    1  LIG1        0.0699
     29 C          -6.9765   -0.9191    0.0015 C.ar    1  LIG1       -0.0024
     30 C          -7.9670    0.1151    0.0037 C.ar    1  LIG1        0.0552
     31 C          -7.3109    1.3057    0.0031 C.ar    1  LIG1        0.0849
     32 N          -5.9587    1.0470    0.0022 N.ar    1  LIG1       -0.3501
     33 H          -5.2408    1.7345    0.0016 H       1  LIG1        0.1661
     34 C          -7.1973   -2.2005    0.0012 C.3     1  LIG1       -0.0359
     35 H          -6.3970   -2.7005    0.5056 H       1  LIG1        0.0279
     36 H          -7.2578   -2.5518   -1.0077 H       1  LIG1        0.0279
     37 H          -8.1189   -2.4037    0.5055 H       1  LIG1        0.0279
     38 N          -9.2564   -0.0501    0.0054 N.pl3   1  LIG1       -0.3561
     39 H          -9.6914    0.7174   -0.4655 H       1  LIG1        0.1424
     40 H          -9.4839   -0.9024   -0.4656 H       1  LIG1        0.1424
     41 C          -7.7701    2.5219    0.0044 C.ar    1  LIG1        0.0695
     42 C          -7.1139    3.7125    0.0049 C.ar    1  LIG1       -0.0031
     43 C          -8.1043    4.7467    0.0074 C.ar    1  LIG1        0.0457
     44 C          -9.3222    4.1427    0.0066 C.ar    1  LIG1        0.0233
     45 N          -9.1222    2.7807    0.0052 N.ar    1  LIG1       -0.3576
     46 H          -9.8401    2.0932    0.0043 H       1  LIG1        0.1654
     47 H         -10.5174    4.6541    0.0080 H       1  LIG1        0.0826
     48 C          -5.8241    3.8777    0.0047 C.3     1  LIG1       -0.0359
     49 H          -5.5813    4.7896    0.5090 H       1  LIG1        0.0279
     50 H          -5.4705    3.9230   -1.0042 H       1  LIG1        0.0279
     51 H          -5.3593    3.0564    0.5090 H       1  LIG1        0.0279
     52 N          -7.8835    6.0278    0.0096 N.pl3   1  LIG1       -0.3566
     53 H          -7.0221    6.2184   -0.4612 H       1  LIG1        0.1424
     54 H          -8.6314    6.4958   -0.4613 H       1  LIG1        0.1424
@<TRIPOS>BOND
     1    23    21    1
     2    10     8    1
     3    36    34    1
     4    50    48    1
     5    14    12    1
     6    13    12    1
     7    27    25    1
     8    26    25    1
     9    40    38    1
    10    39    38    1
    11    54    52    1
    12    53    52    1
    13    21    16    1
    14    21    24    1
    15    21    22    1
    16     2     8    1
    17     2     1   ar
    18     2     3   ar
    19    16    15   ar
    20    16    17   ar
    21     8    11    1
    22     8     9    1
    23     6     5    1
    24     4    15    1
    25     4     5   ar
    26     4     3   ar
    27    20    19    1
    28    15    19   ar
    29     5     1   ar
    30     1     7    1
    31     3    12    1
    32    19    18   ar
    33    18    17   ar
    34    18    28    1
    35    17    25    1
    36    34    29    1
    37    34    37    1
    38    34    35    1
    39    28    29   ar
    40    28    32   ar
    41    29    30   ar
    42    33    32    1
    43    32    31   ar
    44    31    30   ar
    45    31    41    1
    46    30    38    1
    47    46    45    1
    48    41    42   ar
    49    41    45   ar
    50    48    42    1
    51    48    51    1
    52    48    49    1
    53    42    43   ar
    54    45    44   ar
    55    44    43   ar
    56    44    47    1
    57    43    52    1
