@<TRIPOS>MOLECULE
mol_data/noopt/geoms/mol2/13ih13ih13ih.out
 41 43 0 0 0
SMALL
GASTEIGER

@<TRIPOS>ATOM
      1 C           1.1215   -0.3259    0.0002 C.ar    1  LIG1        0.0069
      2 C           0.7176    0.9721   -0.0005 C.ar    1  LIG1       -0.0118
      3 C          -0.7144    0.9744    0.0003 C.ar    1  LIG1        0.0546
      4 C          -1.1226   -0.3223   -0.0003 C.ar    1  LIG1        0.0844
      5 N          -0.0018   -1.1217    0.0001 N.ar    1  LIG1       -0.3578
      6 H          -0.0034   -2.1157   -0.0003 H       1  LIG1        0.1654
      7 H           2.3167   -0.8373    0.0007 H       1  LIG1        0.0810
      8 C           1.4920    2.0167   -0.0003 C.3     1  LIG1       -0.0365
      9 H           1.0026    2.8234    0.5042 H       1  LIG1        0.0279
     10 H           1.7045    2.3034   -1.0091 H       1  LIG1        0.0279
     11 H           2.4062    1.7828    0.5041 H       1  LIG1        0.0279
     12 N          -1.4853    2.0212    0.0010 N.pl3   1  LIG1       -0.3561
     13 H          -1.0256    2.7740   -0.4702 H       1  LIG1        0.1424
     14 H          -2.3405    1.8056   -0.4703 H       1  LIG1        0.1424
     15 C          -2.3194   -0.8299   -0.0001 C.ar    1  LIG1        0.0699
     16 C          -3.5353   -0.2219   -0.0003 C.ar    1  LIG1       -0.0024
     17 C          -4.5290   -1.2530    0.0012 C.ar    1  LIG1        0.0552
     18 C          -3.8767   -2.4457    0.0005 C.ar    1  LIG1        0.0849
     19 N          -2.5238   -2.1913    0.0002 N.ar    1  LIG1       -0.3501
     20 H          -1.8081   -2.8811   -0.0004 H       1  LIG1        0.1661
     21 C          -3.7520    1.0602   -0.0003 C.3     1  LIG1       -0.0359
     22 H          -4.6729    1.2662    0.5041 H       1  LIG1        0.0279
     23 H          -3.8116    1.4119   -1.0091 H       1  LIG1        0.0279
     24 H          -2.9500    1.5575    0.5041 H       1  LIG1        0.0279
     25 N          -5.8180   -1.0837    0.0025 N.pl3   1  LIG1       -0.3561
     26 H          -6.0426   -0.2307   -0.4686 H       1  LIG1        0.1424
     27 H          -6.2552   -1.8497   -0.4686 H       1  LIG1        0.1424
     28 C          -4.3398   -3.6604    0.0012 C.ar    1  LIG1        0.0695
     29 C          -5.6206   -4.1160    0.0013 C.ar    1  LIG1       -0.0031
     30 C          -5.5655   -5.5470    0.0033 C.ar    1  LIG1        0.0457
     31 C          -4.2535   -5.9029    0.0026 C.ar    1  LIG1        0.0233
     32 N          -3.4996   -4.7510    0.0018 N.ar    1  LIG1       -0.3576
     33 H          -2.5064   -4.7127    0.0010 H       1  LIG1        0.1654
     34 H          -3.6983   -7.0784    0.0036 H       1  LIG1        0.0826
     35 C          -6.6953   -3.3841    0.0012 C.3     1  LIG1       -0.0359
     36 H          -7.4819   -3.9054    0.5056 H       1  LIG1        0.0279
     37 H          -6.9901   -3.1834   -1.0076 H       1  LIG1        0.0279
     38 H          -6.4984   -2.4612    0.5056 H       1  LIG1        0.0279
     39 N          -6.5805   -6.3592    0.0050 N.pl3   1  LIG1       -0.3566
     40 H          -7.3514   -5.9303   -0.4659 H       1  LIG1        0.1424
     41 H          -6.3312   -7.2053   -0.4660 H       1  LIG1        0.1424
@<TRIPOS>BOND
     1    23    21    1
     2    10     8    1
     3    37    35    1
     4    14    12    1
     5    13    12    1
     6    27    25    1
     7    26    25    1
     8    41    39    1
     9    40    39    1
    10     2     8    1
    11     2     1   ar
    12     2     3   ar
    13    20    19    1
    14    16    21    1
    15    16    15   ar
    16    16    17   ar
    17     4    15    1
    18     4     5   ar
    19     4     3   ar
    20     6     5    1
    21     8    11    1
    22     8     9    1
    23    21    24    1
    24    21    22    1
    25    15    19   ar
    26     5     1   ar
    27    19    18   ar
    28     1     7    1
    29     3    12    1
    30    18    17   ar
    31    18    28    1
    32    33    32    1
    33    17    25    1
    34    28    29   ar
    35    28    32   ar
    36    35    29    1
    37    35    38    1
    38    35    36    1
    39    29    30   ar
    40    32    31   ar
    41    31    30   ar
    42    31    34    1
    43    30    39    1
