@<TRIPOS>MOLECULE
mol_data/noopt/geoms/mol2/13ih13ih-13ih13ih-.out
 54 57 0 0 0
SMALL
GASTEIGER

@<TRIPOS>ATOM
      1 C           1.1215   -0.3259    0.0002 C.ar    1  LIG1        0.0069
      2 C           0.7176    0.9721   -0.0005 C.ar    1  LIG1       -0.0118
      3 C          -0.7144    0.9744    0.0003 C.ar    1  LIG1        0.0546
      4 C          -1.1226   -0.3223   -0.0003 C.ar    1  LIG1        0.0844
      5 N          -0.0018   -1.1217    0.0001 N.ar    1  LIG1       -0.3578
      6 H          -0.0034   -2.1157   -0.0003 H       1  LIG1        0.1654
      7 H           2.3167   -0.8373    0.0007 H       1  LIG1        0.0810
      8 C           1.4920    2.0167   -0.0003 C.3     1  LIG1       -0.0365
      9 H           1.0026    2.8234    0.5042 H       1  LIG1        0.0279
     10 H           1.7045    2.3034   -1.0091 H       1  LIG1        0.0279
     11 H           2.4062    1.7828    0.5041 H       1  LIG1        0.0279
     12 N          -1.4853    2.0212    0.0010 N.pl3   1  LIG1       -0.3561
     13 H          -1.0256    2.7740   -0.4702 H       1  LIG1        0.1424
     14 H          -2.3405    1.8056   -0.4703 H       1  LIG1        0.1424
     15 C          -2.3194   -0.8299   -0.0001 C.ar    1  LIG1        0.0699
     16 C          -2.7274   -2.1266   -0.0005 C.ar    1  LIG1       -0.0024
     17 C          -4.1594   -2.1244    0.0011 C.ar    1  LIG1        0.0552
     18 C          -4.5635   -0.8264    0.0006 C.ar    1  LIG1        0.0849
     19 N          -3.4402   -0.0305    0.0003 N.ar    1  LIG1       -0.3501
     20 H          -3.4386    0.9635   -0.0001 H       1  LIG1        0.1661
     21 C          -1.9564   -3.1736   -0.0006 C.3     1  LIG1       -0.0359
     22 H          -1.0413   -2.9428    0.5038 H       1  LIG1        0.0279
     23 H          -1.7448   -3.4607   -1.0095 H       1  LIG1        0.0279
     24 H          -2.4483   -3.9789    0.5037 H       1  LIG1        0.0279
     25 N          -4.9336   -3.1687    0.0023 N.pl3   1  LIG1       -0.3561
     26 H          -5.7883   -2.9506   -0.4688 H       1  LIG1        0.1424
     27 H          -4.4765   -3.9231   -0.4688 H       1  LIG1        0.1424
     28 C          -5.7587   -0.3150    0.0014 C.ar    1  LIG1        0.0699
     29 C          -6.1626    0.9830    0.0016 C.ar    1  LIG1       -0.0024
     30 C          -7.5946    0.9853    0.0038 C.ar    1  LIG1        0.0552
     31 C          -8.0028   -0.3114    0.0030 C.ar    1  LIG1        0.0849
     32 N          -6.8820   -1.1108    0.0021 N.ar    1  LIG1       -0.3501
     33 H          -6.8836   -2.1048    0.0013 H       1  LIG1        0.1661
     34 C          -5.3882    2.0276    0.0015 C.3     1  LIG1       -0.0359
     35 H          -5.8776    2.8344    0.5059 H       1  LIG1        0.0279
     36 H          -5.1759    2.3141   -1.0073 H       1  LIG1        0.0279
     37 H          -4.4739    1.7938    0.5059 H       1  LIG1        0.0279
     38 N          -8.3655    2.0321    0.0056 N.pl3   1  LIG1       -0.3561
     39 H          -7.9061    2.7852   -0.4653 H       1  LIG1        0.1424
     40 H          -9.2210    1.8169   -0.4654 H       1  LIG1        0.1424
     41 C          -9.1996   -0.8190    0.0041 C.ar    1  LIG1        0.0695
     42 C          -9.6076   -2.1157    0.0044 C.ar    1  LIG1       -0.0031
     43 C         -11.0396   -2.1135    0.0069 C.ar    1  LIG1        0.0457
     44 C         -11.4437   -0.8155    0.0063 C.ar    1  LIG1        0.0233
     45 N         -10.3204   -0.0196    0.0051 N.ar    1  LIG1       -0.3576
     46 H         -10.3188    0.9744    0.0043 H       1  LIG1        0.1654
     47 H         -12.6389   -0.3041    0.0077 H       1  LIG1        0.0826
     48 C          -8.8366   -3.1627    0.0040 C.3     1  LIG1       -0.0359
     49 H          -7.9215   -2.9320    0.5084 H       1  LIG1        0.0279
     50 H          -8.6251   -3.4497   -1.0049 H       1  LIG1        0.0279
     51 H          -9.3285   -3.9681    0.5083 H       1  LIG1        0.0279
     52 N         -11.8139   -3.1578    0.0089 N.pl3   1  LIG1       -0.3566
     53 H         -12.6687   -2.9399   -0.4620 H       1  LIG1        0.1424
     54 H         -11.3569   -3.9124   -0.4620 H       1  LIG1        0.1424
@<TRIPOS>BOND
     1    23    21    1
     2    10     8    1
     3    36    34    1
     4    50    48    1
     5    14    12    1
     6    13    12    1
     7    27    25    1
     8    26    25    1
     9    40    38    1
    10    39    38    1
    11    54    52    1
    12    53    52    1
    13    21    16    1
    14    21    24    1
    15    21    22    1
    16     2     8    1
    17     2     1   ar
    18     2     3   ar
    19    16    15   ar
    20    16    17   ar
    21     8    11    1
    22     8     9    1
    23     6     5    1
    24     4    15    1
    25     4     5   ar
    26     4     3   ar
    27    20    19    1
    28    15    19   ar
    29     5     1   ar
    30     1     7    1
    31     3    12    1
    32    19    18   ar
    33    18    17   ar
    34    18    28    1
    35    17    25    1
    36    33    32    1
    37    28    29   ar
    38    28    32   ar
    39    34    29    1
    40    34    37    1
    41    34    35    1
    42    29    30   ar
    43    32    31   ar
    44    31    30   ar
    45    31    41    1
    46    30    38    1
    47    48    42    1
    48    48    51    1
    49    48    49    1
    50    41    42   ar
    51    41    45   ar
    52    46    45    1
    53    42    43   ar
    54    45    44   ar
    55    44    43   ar
    56    44    47    1
    57    43    52    1
