@<TRIPOS>MOLECULE
mol_data/noopt/geoms/mol2/13ih13ih13ih-13ih-.out
 54 57 0 0 0
SMALL
GASTEIGER

@<TRIPOS>ATOM
      1 C           1.1215   -0.3259    0.0002 C.ar    1  LIG1        0.0069
      2 C           0.7176    0.9721   -0.0005 C.ar    1  LIG1       -0.0118
      3 C          -0.7144    0.9744    0.0003 C.ar    1  LIG1        0.0546
      4 C          -1.1226   -0.3223   -0.0003 C.ar    1  LIG1        0.0844
      5 N          -0.0018   -1.1217    0.0001 N.ar    1  LIG1       -0.3578
      6 H          -0.0034   -2.1157   -0.0003 H       1  LIG1        0.1654
      7 H           2.3167   -0.8373    0.0007 H       1  LIG1        0.0810
      8 C           1.4920    2.0167   -0.0003 C.3     1  LIG1       -0.0365
      9 H           1.0026    2.8234    0.5042 H       1  LIG1        0.0279
     10 H           1.7045    2.3034   -1.0091 H       1  LIG1        0.0279
     11 H           2.4062    1.7828    0.5041 H       1  LIG1        0.0279
     12 N          -1.4853    2.0212    0.0010 N.pl3   1  LIG1       -0.3561
     13 H          -1.0256    2.7740   -0.4702 H       1  LIG1        0.1424
     14 H          -2.3405    1.8056   -0.4703 H       1  LIG1        0.1424
     15 C          -2.3194   -0.8299   -0.0001 C.ar    1  LIG1        0.0699
     16 C          -3.5353   -0.2219   -0.0003 C.ar    1  LIG1       -0.0024
     17 C          -4.5290   -1.2530    0.0012 C.ar    1  LIG1        0.0552
     18 C          -3.8767   -2.4457    0.0005 C.ar    1  LIG1        0.0849
     19 N          -2.5238   -2.1913    0.0002 N.ar    1  LIG1       -0.3501
     20 H          -1.8081   -2.8811   -0.0004 H       1  LIG1        0.1661
     21 C          -3.7520    1.0602   -0.0003 C.3     1  LIG1       -0.0359
     22 H          -4.6729    1.2662    0.5041 H       1  LIG1        0.0279
     23 H          -3.8116    1.4119   -1.0091 H       1  LIG1        0.0279
     24 H          -2.9500    1.5575    0.5041 H       1  LIG1        0.0279
     25 N          -5.8180   -1.0837    0.0025 N.pl3   1  LIG1       -0.3561
     26 H          -6.0426   -0.2307   -0.4686 H       1  LIG1        0.1424
     27 H          -6.2552   -1.8497   -0.4686 H       1  LIG1        0.1424
     28 C          -4.3398   -3.6604    0.0012 C.ar    1  LIG1        0.0699
     29 C          -3.6874   -4.8530    0.0012 C.ar    1  LIG1       -0.0024
     30 C          -4.6811   -5.8841    0.0032 C.ar    1  LIG1        0.0552
     31 C          -5.8970   -5.2763    0.0027 C.ar    1  LIG1        0.0849
     32 N          -5.6927   -3.9149    0.0019 N.ar    1  LIG1       -0.3501
     33 H          -6.4084   -3.2251    0.0013 H       1  LIG1        0.1661
     34 C          -2.3981   -5.0223    0.0009 C.3     1  LIG1       -0.0359
     35 H          -1.9306   -4.2026    0.5053 H       1  LIG1        0.0279
     36 H          -2.0446   -5.0687   -1.0080 H       1  LIG1        0.0279
     37 H          -2.1582   -5.9351    0.5052 H       1  LIG1        0.0279
     38 N          -4.4643   -7.1660    0.0049 N.pl3   1  LIG1       -0.3561
     39 H          -5.2137   -7.6313   -0.4661 H       1  LIG1        0.1424
     40 H          -3.6036   -7.3591   -0.4662 H       1  LIG1        0.1424
     41 C          -7.0939   -5.7839    0.0038 C.ar    1  LIG1        0.0695
     42 C          -7.5019   -7.0806    0.0041 C.ar    1  LIG1       -0.0031
     43 C          -8.9339   -7.0784    0.0067 C.ar    1  LIG1        0.0457
     44 C          -9.3380   -5.7804    0.0061 C.ar    1  LIG1        0.0233
     45 N          -8.2146   -4.9846    0.0048 N.ar    1  LIG1       -0.3576
     46 H          -8.2131   -3.9906    0.0040 H       1  LIG1        0.1654
     47 H         -10.5331   -5.2690    0.0075 H       1  LIG1        0.0826
     48 C          -6.7308   -8.1276    0.0038 C.3     1  LIG1       -0.0359
     49 H          -5.8157   -7.8969    0.5081 H       1  LIG1        0.0279
     50 H          -6.5194   -8.4146   -1.0052 H       1  LIG1        0.0279
     51 H          -7.2227   -8.9330    0.5080 H       1  LIG1        0.0279
     52 N          -9.7081   -8.1227    0.0087 N.pl3   1  LIG1       -0.3566
     53 H         -10.5629   -7.9048   -0.4622 H       1  LIG1        0.1424
     54 H          -9.2511   -8.8773   -0.4622 H       1  LIG1        0.1424
@<TRIPOS>BOND
     1    23    21    1
     2    10     8    1
     3    36    34    1
     4    50    48    1
     5    14    12    1
     6    13    12    1
     7    27    25    1
     8    26    25    1
     9    40    38    1
    10    39    38    1
    11    54    52    1
    12    53    52    1
    13     2     8    1
    14     2     1   ar
    15     2     3   ar
    16    20    19    1
    17    16    21    1
    18    16    15   ar
    19    16    17   ar
    20     8    11    1
    21     8     9    1
    22     6     5    1
    23     4    15    1
    24     4     5   ar
    25     4     3   ar
    26    21    24    1
    27    21    22    1
    28    15    19   ar
    29     5     1   ar
    30    19    18   ar
    31     1     7    1
    32     3    12    1
    33    18    17   ar
    34    18    28    1
    35    34    29    1
    36    34    37    1
    37    34    35    1
    38    29    28   ar
    39    29    30   ar
    40    17    25    1
    41    28    32   ar
    42    33    32    1
    43    32    31   ar
    44    31    30   ar
    45    31    41    1
    46    30    38    1
    47    48    42    1
    48    48    51    1
    49    48    49    1
    50    41    42   ar
    51    41    45   ar
    52    46    45    1
    53    42    43   ar
    54    45    44   ar
    55    44    43   ar
    56    44    47    1
    57    43    52    1
