@<TRIPOS>MOLECULE
mol_data/noopt/geoms/mol2/13ih13ih.out
 28 29 0 0 0
SMALL
GASTEIGER

@<TRIPOS>ATOM
      1 C           1.1215   -0.3259    0.0002 C.ar    1  LIG1        0.0069
      2 C           0.7176    0.9721   -0.0005 C.ar    1  LIG1       -0.0118
      3 C          -0.7144    0.9744    0.0003 C.ar    1  LIG1        0.0546
      4 C          -1.1226   -0.3223   -0.0003 C.ar    1  LIG1        0.0844
      5 N          -0.0018   -1.1217    0.0001 N.ar    1  LIG1       -0.3578
      6 H          -0.0034   -2.1157   -0.0003 H       1  LIG1        0.1654
      7 H           2.3167   -0.8373    0.0007 H       1  LIG1        0.0810
      8 C           1.4920    2.0167   -0.0003 C.3     1  LIG1       -0.0365
      9 H           1.0026    2.8234    0.5042 H       1  LIG1        0.0279
     10 H           1.7045    2.3034   -1.0091 H       1  LIG1        0.0279
     11 H           2.4062    1.7828    0.5041 H       1  LIG1        0.0279
     12 N          -1.4853    2.0212    0.0010 N.pl3   1  LIG1       -0.3561
     13 H          -1.0256    2.7740   -0.4702 H       1  LIG1        0.1424
     14 H          -2.3405    1.8056   -0.4703 H       1  LIG1        0.1424
     15 C          -2.3194   -0.8299   -0.0001 C.ar    1  LIG1        0.0694
     16 C          -3.5353   -0.2219   -0.0003 C.ar    1  LIG1       -0.0031
     17 C          -4.5290   -1.2530    0.0012 C.ar    1  LIG1        0.0457
     18 C          -3.8767   -2.4457    0.0005 C.ar    1  LIG1        0.0233
     19 N          -2.5238   -2.1913    0.0002 N.ar    1  LIG1       -0.3576
     20 H          -1.8081   -2.8811   -0.0004 H       1  LIG1        0.1654
     21 H          -4.3398   -3.6604    0.0012 H       1  LIG1        0.0826
     22 C          -3.7520    1.0602   -0.0003 C.3     1  LIG1       -0.0359
     23 H          -4.6729    1.2662    0.5041 H       1  LIG1        0.0279
     24 H          -3.8116    1.4119   -1.0091 H       1  LIG1        0.0279
     25 H          -2.9500    1.5575    0.5041 H       1  LIG1        0.0279
     26 N          -5.8180   -1.0837    0.0025 N.pl3   1  LIG1       -0.3566
     27 H          -6.0426   -0.2307   -0.4686 H       1  LIG1        0.1424
     28 H          -6.2552   -1.8497   -0.4686 H       1  LIG1        0.1424
@<TRIPOS>BOND
     1    24    22    1
     2    10     8    1
     3    14    12    1
     4    13    12    1
     5    28    26    1
     6    27    26    1
     7     2     8    1
     8     2     1   ar
     9     2     3   ar
    10    20    19    1
    11    16    22    1
    12    16    15   ar
    13    16    17   ar
    14     4    15    1
    15     4     5   ar
    16     4     3   ar
    17     6     5    1
    18     8    11    1
    19     8     9    1
    20    22    25    1
    21    22    23    1
    22    15    19   ar
    23     5     1   ar
    24    19    18   ar
    25     1     7    1
    26     3    12    1
    27    18    17   ar
    28    18    21    1
    29    17    26    1
