@<TRIPOS>MOLECULE
mol_data/noopt/geoms/mol2/13ih12fa(270)4dl(90)4aa(160).out
 48 51 0 0 0
SMALL
GASTEIGER

@<TRIPOS>ATOM
      1 C           1.1215   -0.3259    0.0002 C.ar    1  LIG1        0.0070
      2 C           0.7176    0.9721   -0.0005 C.ar    1  LIG1       -0.0118
      3 C          -0.7144    0.9744    0.0003 C.ar    1  LIG1        0.0563
      4 C          -1.1226   -0.3223   -0.0003 C.ar    1  LIG1        0.1069
      5 N          -0.0018   -1.1217    0.0001 N.ar    1  LIG1       -0.3564
      6 H          -0.0034   -2.1157   -0.0003 H       1  LIG1        0.1655
      7 H           2.3167   -0.8373    0.0007 H       1  LIG1        0.0810
      8 C           1.4920    2.0167   -0.0003 C.3     1  LIG1       -0.0365
      9 H           1.0026    2.8234    0.5042 H       1  LIG1        0.0279
     10 H           1.7045    2.3034   -1.0091 H       1  LIG1        0.0279
     11 H           2.4062    1.7828    0.5041 H       1  LIG1        0.0279
     12 N          -1.4853    2.0212    0.0010 N.pl3   1  LIG1       -0.3560
     13 H          -1.0256    2.7740   -0.4702 H       1  LIG1        0.1424
     14 H          -2.3405    1.8056   -0.4703 H       1  LIG1        0.1424
     15 C          -2.3194   -0.8299   -0.0001 C.ar    1  LIG1        0.1947
     16 C          -3.2248   -1.2139   -0.9674 C.ar    1  LIG1        0.1648
     17 C          -4.3927   -1.7093   -0.2691 C.ar    1  LIG1        0.0265
     18 C          -4.1233   -1.5951    1.0792 C.ar    1  LIG1        0.1407
     19 O          -2.8508   -1.0555    1.2705 O.2     1  LIG1       -0.4495
     20 O          -3.0835   -1.1539   -2.2584 O.3     1  LIG1       -0.5031
     21 H          -3.4025   -0.3062   -2.5765 H       1  LIG1        0.2923
     22 H          -5.4728   -2.1673   -0.8292 H       1  LIG1        0.0692
     23 C          -4.1574   -1.6104    3.4250 C.ar    1  LIG1        0.0632
     24 C          -4.8911   -1.9232    4.5856 C.ar    1  LIG1       -0.0324
     25 C          -4.7630   -1.8664    2.1778 C.ar    1  LIG1        0.0382
     26 C          -6.1716   -2.4665    4.5102 C.ar    1  LIG1        0.0250
     27 H          -4.4425   -1.7338    5.5583 H       1  LIG1        0.0638
     28 C          -6.0414   -2.4088    2.1020 C.ar    1  LIG1       -0.0074
     29 C          -6.7544   -2.7124    3.2664 C.ar    1  LIG1        0.1285
     30 H          -6.4867   -2.5971    1.1284 H       1  LIG1        0.0662
     31 N          -1.9173   -0.6596    3.6776 N.1     1  LIG1       -0.1908
     32 C          -2.9671   -1.1052    3.5592 C.1     1  LIG1        0.0999
     33 O          -7.9491   -3.2194    3.1893 O.3     1  LIG1       -0.4945
     34 C          -8.9143   -2.1646    3.1610 C.3     1  LIG1        0.0788
     35 H          -9.8973   -2.5823    3.0974 H       1  LIG1        0.0660
     36 H          -8.8317   -1.5814    4.0543 H       1  LIG1        0.0660
     37 H          -8.7361   -1.5409    2.3101 H       1  LIG1        0.0660
     38 C          -6.3983   -3.8121    6.4186 C.ar    1  LIG1       -0.0539
     39 C          -7.1358   -4.0723    7.5898 C.ar    1  LIG1       -0.0612
     40 C          -6.8207   -2.7432    5.6020 C.ar    1  LIG1       -0.0144
     41 C          -8.2447   -3.3030    7.9351 C.ar    1  LIG1       -0.0617
     42 H          -6.8273   -4.8926    8.2340 H       1  LIG1        0.0618
     43 C          -7.9276   -1.9749    5.9463 C.ar    1  LIG1       -0.0539
     44 C          -8.6470   -2.2488    7.1142 C.ar    1  LIG1       -0.0612
     45 H          -8.2335   -1.1560    5.3001 H       1  LIG1        0.0624
     46 H          -8.9025   -3.5711    9.0239 H       1  LIG1        0.0618
     47 H          -5.3728   -4.5644    6.1496 H       1  LIG1        0.0624
     48 H          -9.6810   -1.5273    7.4307 H       1  LIG1        0.0618
@<TRIPOS>BOND
     1    21    20    1
     2    20    16    1
     3    10     8    1
     4    16    17   ar
     5    16    15   ar
     6    22    17    1
     7    14    12    1
     8    13    12    1
     9    17    18   ar
    10     2     8    1
    11     2     1   ar
    12     2     3   ar
    13     4    15    1
    14     4     5   ar
    15     4     3   ar
    16     6     5    1
    17     8    11    1
    18     8     9    1
    19    15    19   ar
    20     5     1   ar
    21     1     7    1
    22     3    12    1
    23    18    19   ar
    24    18    25    1
    25    30    28    1
    26    28    25   ar
    27    28    29   ar
    28    25    23   ar
    29    37    34    1
    30    35    34    1
    31    34    33    1
    32    34    36    1
    33    33    29    1
    34    29    26   ar
    35    23    32    1
    36    23    24   ar
    37    32    31    3
    38    26    24   ar
    39    26    40    1
    40    24    27    1
    41    45    43    1
    42    40    43   ar
    43    40    38   ar
    44    43    44   ar
    45    47    38    1
    46    38    39   ar
    47    44    48    1
    48    44    41   ar
    49    39    41   ar
    50    39    42    1
    51    41    46    1
