@<TRIPOS>MOLECULE
mol_data/noopt/geoms/mol2/13ih4ff-12fe4id-.out
 51 54 0 0 0
SMALL
GASTEIGER

@<TRIPOS>ATOM
      1 C           1.1215   -0.3259    0.0002 C.ar    1  LIG1        0.0069
      2 C           0.7176    0.9721   -0.0005 C.ar    1  LIG1       -0.0119
      3 C          -0.7144    0.9744    0.0003 C.ar    1  LIG1        0.0532
      4 C          -1.1226   -0.3223   -0.0003 C.ar    1  LIG1        0.0713
      5 N          -0.0018   -1.1217    0.0001 N.ar    1  LIG1       -0.3588
      6 H          -0.0034   -2.1157   -0.0003 H       1  LIG1        0.1654
      7 H           2.3167   -0.8373    0.0007 H       1  LIG1        0.0810
      8 C           1.4920    2.0167   -0.0003 C.3     1  LIG1       -0.0365
      9 H           1.0026    2.8234    0.5042 H       1  LIG1        0.0279
     10 H           1.7045    2.3034   -1.0091 H       1  LIG1        0.0279
     11 H           2.4062    1.7828    0.5041 H       1  LIG1        0.0279
     12 N          -1.4853    2.0212    0.0010 N.pl3   1  LIG1       -0.3561
     13 H          -1.0256    2.7740   -0.4702 H       1  LIG1        0.1424
     14 H          -2.3405    1.8056   -0.4703 H       1  LIG1        0.1424
     15 C          -3.4433    0.0211    0.0221 C.ar    1  LIG1        0.1269
     16 C          -4.7179   -0.5778    0.0229 C.ar    1  LIG1       -0.0052
     17 C          -2.3194   -0.8299   -0.0001 C.ar    1  LIG1        0.0450
     18 C          -4.8691   -1.9625    0.0019 C.ar    1  LIG1        0.0658
     19 H          -5.5986    0.0603    0.0400 H       1  LIG1        0.0662
     20 C          -2.4698   -2.2123   -0.0211 C.ar    1  LIG1       -0.0068
     21 C          -3.7445   -2.7882   -0.0203 C.ar    1  LIG1        0.1285
     22 H          -1.5876   -2.8471   -0.0379 H       1  LIG1        0.0662
     23 O          -3.3660    1.3186    0.0420 O.3     1  LIG1       -0.5061
     24 H          -4.2503    1.6923    0.0469 H       1  LIG1        0.2922
     25 O          -3.8789   -4.0811   -0.0398 O.3     1  LIG1       -0.5060
     26 H          -3.0120   -4.4934   -0.0446 H       1  LIG1        0.2922
     27 C          -6.0610   -2.4817    0.0032 C.ar    1  LIG1        0.1817
     28 C          -7.3488   -1.9876    0.0190 C.ar    1  LIG1        0.1791
     29 C          -8.2332   -3.1342    0.0095 C.ar    1  LIG1        0.1124
     30 C          -7.4266   -4.2535   -0.0115 C.ar    1  LIG1        0.1550
     31 O          -6.0831   -3.8770   -0.0159 O.2     1  LIG1       -0.4496
     32 O          -7.7233   -0.7428    0.0386 O.3     1  LIG1       -0.5024
     33 H          -8.6822   -0.6967    0.0435 H       1  LIG1        0.2923
     34 C          -9.5324   -3.0891    0.0192 C.1     1  LIG1       -0.0622
     35 C         -10.7328   -3.0475    0.0282 C.1     1  LIG1       -0.1137
     36 H         -11.8021   -3.0103    0.0362 H       1  LIG1        0.1232
     37 C          -8.9405   -6.0457   -0.0142 C.ar    1  LIG1       -0.0397
     38 C          -9.1024   -7.4446   -0.0311 C.ar    1  LIG1       -0.0570
     39 C          -7.6252   -5.5380   -0.0276 C.ar    1  LIG1        0.0227
     40 C          -8.0049   -8.3019   -0.0606 C.ar    1  LIG1       -0.0441
     41 H         -10.1087   -7.8575   -0.0210 H       1  LIG1        0.0621
     42 C          -6.5291   -6.3935   -0.0570 C.ar    1  LIG1       -0.0334
     43 C          -6.7106   -7.7803   -0.0738 C.ar    1  LIG1        0.0525
     44 H          -5.5249   -5.9776   -0.0668 H       1  LIG1        0.0637
     45 H          -8.1910   -9.5885   -0.0756 H       1  LIG1        0.0630
     46 C         -10.0032   -5.2969    0.0130 C.3     1  LIG1       -0.0390
     47 H         -10.7893   -5.8117    0.5247 H       1  LIG1        0.0278
     48 H         -10.3120   -5.0794   -0.9882 H       1  LIG1        0.0278
     49 H          -9.7828   -4.3834    0.5247 H       1  LIG1        0.0278
     50 N          -4.7752   -9.2761   -0.1253 N.1     1  LIG1       -0.1909
     51 C          -5.6822   -8.5751   -0.1012 C.1     1  LIG1        0.0992
@<TRIPOS>BOND
     1    10     8    1
     2    48    46    1
     3    14    12    1
     4    13    12    1
     5    50    51    3
     6    51    43    1
     7    45    40    1
     8    43    40   ar
     9    43    42   ar
    10    44    42    1
    11    40    38   ar
    12    42    39   ar
    13    26    25    1
    14    25    21    1
    15    22    20    1
    16    38    41    1
    17    38    37   ar
    18    39    37   ar
    19    39    30    1
    20    20    21   ar
    21    20    17   ar
    22    21    18   ar
    23    31    30   ar
    24    31    27   ar
    25    37    46    1
    26    30    29   ar
    27     2     8    1
    28     2     1   ar
    29     2     3   ar
    30     6     5    1
    31     8    11    1
    32     8     9    1
    33     4    17    1
    34     4     5   ar
    35     4     3   ar
    36    17    15   ar
    37     5     1   ar
    38     1     7    1
    39     3    12    1
    40    18    27    1
    41    18    16   ar
    42    27    28   ar
    43    29    28   ar
    44    29    34    1
    45    46    49    1
    46    46    47    1
    47    28    32    1
    48    34    35    3
    49    15    16   ar
    50    15    23    1
    51    16    19    1
    52    35    36    1
    53    32    33    1
    54    23    24    1
