@<TRIPOS>MOLECULE
mol_data/noopt/geoms/mol2/13ih13ih13ih13ih.out
 54 57 0 0 0
SMALL
GASTEIGER

@<TRIPOS>ATOM
      1 C           1.1215   -0.3259    0.0002 C.ar    1  LIG1        0.0069
      2 C           0.7176    0.9721   -0.0005 C.ar    1  LIG1       -0.0118
      3 C          -0.7144    0.9744    0.0003 C.ar    1  LIG1        0.0546
      4 C          -1.1226   -0.3223   -0.0003 C.ar    1  LIG1        0.0844
      5 N          -0.0018   -1.1217    0.0001 N.ar    1  LIG1       -0.3578
      6 H          -0.0034   -2.1157   -0.0003 H       1  LIG1        0.1654
      7 H           2.3167   -0.8373    0.0007 H       1  LIG1        0.0810
      8 C           1.4920    2.0167   -0.0003 C.3     1  LIG1       -0.0365
      9 H           1.0026    2.8234    0.5042 H       1  LIG1        0.0279
     10 H           1.7045    2.3034   -1.0091 H       1  LIG1        0.0279
     11 H           2.4062    1.7828    0.5041 H       1  LIG1        0.0279
     12 N          -1.4853    2.0212    0.0010 N.pl3   1  LIG1       -0.3561
     13 H          -1.0256    2.7740   -0.4702 H       1  LIG1        0.1424
     14 H          -2.3405    1.8056   -0.4703 H       1  LIG1        0.1424
     15 C          -2.3194   -0.8299   -0.0001 C.ar    1  LIG1        0.0699
     16 C          -3.5353   -0.2219   -0.0003 C.ar    1  LIG1       -0.0024
     17 C          -4.5290   -1.2530    0.0012 C.ar    1  LIG1        0.0552
     18 C          -3.8767   -2.4457    0.0005 C.ar    1  LIG1        0.0849
     19 N          -2.5238   -2.1913    0.0002 N.ar    1  LIG1       -0.3501
     20 H          -1.8081   -2.8811   -0.0004 H       1  LIG1        0.1661
     21 C          -3.7520    1.0602   -0.0003 C.3     1  LIG1       -0.0359
     22 H          -4.6729    1.2662    0.5041 H       1  LIG1        0.0279
     23 H          -3.8116    1.4119   -1.0091 H       1  LIG1        0.0279
     24 H          -2.9500    1.5575    0.5041 H       1  LIG1        0.0279
     25 N          -5.8180   -1.0837    0.0025 N.pl3   1  LIG1       -0.3561
     26 H          -6.0426   -0.2307   -0.4686 H       1  LIG1        0.1424
     27 H          -6.2552   -1.8497   -0.4686 H       1  LIG1        0.1424
     28 C          -4.3398   -3.6604    0.0012 C.ar    1  LIG1        0.0699
     29 C          -5.6206   -4.1160    0.0013 C.ar    1  LIG1       -0.0024
     30 C          -5.5655   -5.5470    0.0033 C.ar    1  LIG1        0.0552
     31 C          -4.2535   -5.9029    0.0026 C.ar    1  LIG1        0.0849
     32 N          -3.4996   -4.7510    0.0018 N.ar    1  LIG1       -0.3501
     33 H          -2.5064   -4.7127    0.0010 H       1  LIG1        0.1661
     34 C          -6.6953   -3.3841    0.0012 C.3     1  LIG1       -0.0359
     35 H          -7.4819   -3.9054    0.5056 H       1  LIG1        0.0279
     36 H          -6.9901   -3.1834   -1.0076 H       1  LIG1        0.0279
     37 H          -6.4984   -2.4612    0.5056 H       1  LIG1        0.0279
     38 N          -6.5805   -6.3592    0.0050 N.pl3   1  LIG1       -0.3561
     39 H          -7.3514   -5.9303   -0.4659 H       1  LIG1        0.1424
     40 H          -6.3312   -7.2053   -0.4660 H       1  LIG1        0.1424
     41 C          -3.6983   -7.0784    0.0036 C.ar    1  LIG1        0.0695
     42 C          -4.2571   -8.3176    0.0039 C.ar    1  LIG1       -0.0031
     43 C          -3.1870   -9.2693    0.0063 C.ar    1  LIG1        0.0457
     44 C          -2.0214   -8.5697    0.0055 C.ar    1  LIG1        0.0233
     45 N          -2.3298   -7.2280    0.0043 N.ar    1  LIG1       -0.3576
     46 H          -1.6693   -6.4852    0.0035 H       1  LIG1        0.1654
     47 H          -0.7891   -8.9837    0.0068 H       1  LIG1        0.0826
     48 C          -5.5295   -8.5856    0.0038 C.3     1  LIG1       -0.0359
     49 H          -5.6985   -9.5140    0.5082 H       1  LIG1        0.0279
     50 H          -5.8784   -8.6592   -1.0051 H       1  LIG1        0.0279
     51 H          -6.0586   -7.8042    0.5081 H       1  LIG1        0.0279
     52 N          -3.3045  -10.5640    0.0083 N.pl3   1  LIG1       -0.3566
     53 H          -4.1479  -10.8228   -0.4626 H       1  LIG1        0.1424
     54 H          -2.5216  -10.9704   -0.4626 H       1  LIG1        0.1424
@<TRIPOS>BOND
     1    23    21    1
     2    10     8    1
     3    36    34    1
     4    50    48    1
     5    14    12    1
     6    13    12    1
     7    27    25    1
     8    26    25    1
     9    40    38    1
    10    39    38    1
    11    54    52    1
    12    53    52    1
    13     2     8    1
    14     2     1   ar
    15     2     3   ar
    16    20    19    1
    17    16    21    1
    18    16    15   ar
    19    16    17   ar
    20     8    11    1
    21     8     9    1
    22     6     5    1
    23     4    15    1
    24     4     5   ar
    25     4     3   ar
    26    21    24    1
    27    21    22    1
    28    15    19   ar
    29     5     1   ar
    30    19    18   ar
    31     1     7    1
    32     3    12    1
    33    18    17   ar
    34    18    28    1
    35    33    32    1
    36    17    25    1
    37    28    29   ar
    38    28    32   ar
    39    34    29    1
    40    34    37    1
    41    34    35    1
    42    29    30   ar
    43    32    31   ar
    44    31    30   ar
    45    31    41    1
    46    30    38    1
    47    46    45    1
    48    41    42   ar
    49    41    45   ar
    50    48    42    1
    51    48    51    1
    52    48    49    1
    53    42    43   ar
    54    45    44   ar
    55    44    43   ar
    56    44    47    1
    57    43    52    1
