@<TRIPOS>MOLECULE
mol_data/noopt/geoms/mol2/13ih13ih-4ih13ih.out
 56 59 0 0 0
SMALL
GASTEIGER

@<TRIPOS>ATOM
      1 C           1.1215   -0.3259    0.0002 C.ar    1  LIG1        0.0069
      2 C           0.7176    0.9721   -0.0005 C.ar    1  LIG1       -0.0118
      3 C          -0.7144    0.9744    0.0003 C.ar    1  LIG1        0.0546
      4 C          -1.1226   -0.3223   -0.0003 C.ar    1  LIG1        0.0844
      5 N          -0.0018   -1.1217    0.0001 N.ar    1  LIG1       -0.3578
      6 H          -0.0034   -2.1157   -0.0003 H       1  LIG1        0.1654
      7 H           2.3167   -0.8373    0.0007 H       1  LIG1        0.0810
      8 C           1.4920    2.0167   -0.0003 C.3     1  LIG1       -0.0365
      9 H           1.0026    2.8234    0.5042 H       1  LIG1        0.0279
     10 H           1.7045    2.3034   -1.0091 H       1  LIG1        0.0279
     11 H           2.4062    1.7828    0.5041 H       1  LIG1        0.0279
     12 N          -1.4853    2.0212    0.0010 N.pl3   1  LIG1       -0.3561
     13 H          -1.0256    2.7740   -0.4702 H       1  LIG1        0.1424
     14 H          -2.3405    1.8056   -0.4703 H       1  LIG1        0.1424
     15 C          -2.3194   -0.8299   -0.0001 C.ar    1  LIG1        0.0699
     16 C          -2.7274   -2.1266   -0.0005 C.ar    1  LIG1       -0.0024
     17 C          -4.1594   -2.1244    0.0011 C.ar    1  LIG1        0.0538
     18 C          -4.5635   -0.8264    0.0006 C.ar    1  LIG1        0.0685
     19 N          -3.4402   -0.0305    0.0003 N.ar    1  LIG1       -0.3513
     20 H          -3.4386    0.9635   -0.0001 H       1  LIG1        0.1660
     21 C          -1.9564   -3.1736   -0.0006 C.3     1  LIG1       -0.0359
     22 H          -1.0413   -2.9428    0.5038 H       1  LIG1        0.0279
     23 H          -1.7448   -3.4607   -1.0095 H       1  LIG1        0.0279
     24 H          -2.4483   -3.9789    0.5037 H       1  LIG1        0.0279
     25 N          -4.9336   -3.1687    0.0023 N.pl3   1  LIG1       -0.3561
     26 H          -5.7883   -2.9506   -0.4688 H       1  LIG1        0.1424
     27 H          -4.4765   -3.9231   -0.4688 H       1  LIG1        0.1424
     28 C          -5.9236    1.0852    0.0026 C.ar    1  LIG1       -0.0406
     29 C          -7.2385    1.5895    0.0050 C.ar    1  LIG1       -0.0473
     30 C          -5.7587   -0.3150    0.0014 C.ar    1  LIG1        0.0048
     31 C          -8.3419    0.7391    0.0056 C.ar    1  LIG1        0.0195
     32 H          -7.3885    2.6668    0.0062 H       1  LIG1        0.0627
     33 C          -6.8598   -1.1644    0.0020 C.ar    1  LIG1       -0.0310
     34 C          -8.1582   -0.6442    0.0040 C.ar    1  LIG1        0.0344
     35 H          -6.7065   -2.2406    0.0011 H       1  LIG1        0.0643
     36 C          -4.9340    1.9287    0.0020 C.3     1  LIG1       -0.0391
     37 H          -5.2291    2.8252    0.5062 H       1  LIG1        0.0278
     38 H          -4.6630    2.1598   -1.0071 H       1  LIG1        0.0278
     39 H          -4.0956    1.4954    0.5061 H       1  LIG1        0.0278
     40 N          -9.1838   -1.4431    0.0046 N.pl3   1  LIG1       -0.3574
     41 H          -9.9487   -1.0039   -0.4666 H       1  LIG1        0.1423
     42 H          -8.9452   -2.2922   -0.4666 H       1  LIG1        0.1423
     43 C          -9.5420    1.2389    0.0077 C.ar    1  LIG1        0.0530
     44 C          -9.9585    2.5329    0.0088 C.ar    1  LIG1       -0.0045
     45 C         -11.3904    2.5213    0.0122 C.ar    1  LIG1        0.0456
     46 C         -11.7860    1.2207    0.0113 C.ar    1  LIG1        0.0233
     47 N         -10.6575    0.4322    0.0090 N.ar    1  LIG1       -0.3588
     48 H         -10.6495   -0.5617    0.0079 H       1  LIG1        0.1654
     49 H         -12.9778    0.7015    0.0134 H       1  LIG1        0.0826
     50 C          -9.1942    3.5849    0.0084 C.3     1  LIG1       -0.0360
     51 H          -9.6913    4.3871    0.5127 H       1  LIG1        0.0279
     52 H          -8.9848    3.8733   -1.0006 H       1  LIG1        0.0279
     53 H          -8.2777    3.3601    0.5126 H       1  LIG1        0.0279
     54 N         -12.1714    3.5606    0.0152 N.pl3   1  LIG1       -0.3566
     55 H         -11.7196    4.3184   -0.4555 H       1  LIG1        0.1424
     56 H         -13.0250    3.3374   -0.4555 H       1  LIG1        0.1424
@<TRIPOS>BOND
     1    23    21    1
     2    10     8    1
     3    38    36    1
     4    52    50    1
     5    14    12    1
     6    13    12    1
     7    27    25    1
     8    26    25    1
     9    42    40    1
    10    41    40    1
    11    56    54    1
    12    55    54    1
    13    21    16    1
    14    21    24    1
    15    21    22    1
    16     2     8    1
    17     2     1   ar
    18     2     3   ar
    19    16    15   ar
    20    16    17   ar
    21     8    11    1
    22     8     9    1
    23     6     5    1
    24     4    15    1
    25     4     5   ar
    26     4     3   ar
    27    20    19    1
    28    15    19   ar
    29     5     1   ar
    30     1     7    1
    31     3    12    1
    32    19    18   ar
    33    18    17   ar
    34    18    30    1
    35    17    25    1
    36    35    33    1
    37    30    33   ar
    38    30    28   ar
    39    36    28    1
    40    36    39    1
    41    36    37    1
    42    33    34   ar
    43    28    29   ar
    44    34    40    1
    45    34    31   ar
    46    29    31   ar
    47    29    32    1
    48    31    43    1
    49    43    44   ar
    50    43    47   ar
    51    48    47    1
    52    50    44    1
    53    50    53    1
    54    50    51    1
    55    44    45   ar
    56    47    46   ar
    57    46    45   ar
    58    46    49    1
    59    45    54    1
