@<TRIPOS>MOLECULE
mol_data/noopt/geoms/mol2/13ii6de6lh-13ea-.out
 53 56 0 0 0
SMALL
GASTEIGER

@<TRIPOS>ATOM
      1 C           1.1215   -0.3259    0.0002 C.ar    1  LIG1        0.0053
      2 C           0.7176    0.9721   -0.0005 C.ar    1  LIG1       -0.0297
      3 C          -0.7144    0.9744    0.0003 C.ar    1  LIG1       -0.0222
      4 C          -1.1226   -0.3223   -0.0003 C.ar    1  LIG1        0.0524
      5 N          -0.0018   -1.1217    0.0001 N.ar    1  LIG1       -0.3601
      6 H          -0.0034   -2.1157   -0.0003 H       1  LIG1        0.1654
      7 H           2.3167   -0.8373    0.0007 H       1  LIG1        0.0810
      8 C           1.4920    2.0167   -0.0003 C.3     1  LIG1       -0.0380
      9 H           1.0026    2.8234    0.5042 H       1  LIG1        0.0278
     10 H           1.7045    2.3034   -1.0091 H       1  LIG1        0.0278
     11 H           2.4062    1.7828    0.5041 H       1  LIG1        0.0278
     12 C          -1.4855    2.0214    0.0010 C.3     1  LIG1       -0.0375
     13 H          -2.4003    1.7904    0.5056 H       1  LIG1        0.0278
     14 H          -1.6974    2.3090   -1.0077 H       1  LIG1        0.0278
     15 H          -0.9933    2.8265    0.5056 H       1  LIG1        0.0278
     16 C          -2.5001   -2.2252    0.0002 C.ar    1  LIG1        0.1499
     17 C          -2.3194   -0.8299   -0.0001 C.ar    1  LIG1        0.0356
     18 C          -3.4502   -0.0112    0.0002 C.ar    1  LIG1       -0.0324
     19 C          -4.7120   -0.6082    0.0005 C.ar    1  LIG1        0.0515
     20 C          -4.7903   -2.0130    0.0006 C.ar    1  LIG1        0.0930
     21 N          -3.7098   -2.8179    0.0005 N.ar    1  LIG1       -0.2343
     22 H          -3.3485    1.0833   -0.0010 H       1  LIG1        0.0638
     23 N          -0.5768   -3.7373   -0.0001 N.1     1  LIG1       -0.1893
     24 C          -1.4781   -3.0286    0.0000 C.1     1  LIG1        0.1198
     25 C          -5.7954    0.1103    0.0006 C.1     1  LIG1       -0.0675
     26 C          -6.7965    0.7742    0.0007 C.1     1  LIG1       -0.1138
     27 H          -7.6882    1.3656    0.0007 H       1  LIG1        0.1232
     28 C          -6.0101   -4.0204   -0.0198 C.ar    1  LIG1        0.2246
     29 C          -5.9423   -2.6153    0.0010 C.ar    1  LIG1        0.0648
     30 C          -7.1353   -1.8905    0.0222 C.ar    1  LIG1       -0.0246
     31 C          -8.3450   -2.5872    0.0217 C.ar    1  LIG1        0.0532
     32 C          -8.3099   -3.9936   -0.0001 C.ar    1  LIG1        0.1127
     33 N          -7.1682   -4.7087   -0.0206 N.ar    1  LIG1       -0.2090
     34 H          -7.1220   -0.7915    0.0378 H       1  LIG1        0.0645
     35 O          -4.9268   -4.7389   -0.0399 O.3     1  LIG1       -0.4792
     36 C          -5.2741   -6.1260   -0.0474 C.3     1  LIG1        0.0804
     37 H          -4.3823   -6.7170   -0.0641 H       1  LIG1        0.0660
     38 H          -5.8387   -6.3571    0.8318 H       1  LIG1        0.0660
     39 H          -5.8614   -6.3420   -0.9153 H       1  LIG1        0.0660
     40 N          -9.4827   -1.9584    0.0408 N.pl3   1  LIG1       -0.3563
     41 H          -9.3855   -1.0793   -0.4256 H       1  LIG1        0.1424
     42 H         -10.1753   -2.5085   -0.4257 H       1  LIG1        0.1424
     43 C          -9.4097   -4.6867   -0.0014 C.ar    1  LIG1        0.0824
     44 C         -10.7074   -4.2819   -0.0026 C.ar    1  LIG1        0.0514
     45 C         -11.5227   -5.4591   -0.0025 C.ar    1  LIG1       -0.0283
     46 C         -10.6873   -6.5316   -0.0030 C.ar    1  LIG1        0.0034
     47 N          -9.3928   -6.0633   -0.0019 N.ar    1  LIG1       -0.3584
     48 H          -8.5756   -6.6292   -0.0021 H       1  LIG1        0.1654
     49 H         -10.9494   -7.8050   -0.0033 H       1  LIG1        0.0807
     50 C         -11.1271   -3.0515   -0.0022 C.1     1  LIG1       -0.0675
     51 C         -11.5149   -1.9146   -0.0019 C.1     1  LIG1       -0.1138
     52 H         -11.8604   -0.9019   -0.0016 H       1  LIG1        0.1232
     53 H         -12.8221   -5.4990   -0.0024 H       1  LIG1        0.0645
@<TRIPOS>BOND
     1    10     8    1
     2    14    12    1
     3    39    36    1
     4    42    40    1
     5    41    40    1
     6    37    36    1
     7    36    35    1
     8    36    38    1
     9    35    28    1
    10    33    28   ar
    11    33    32   ar
    12    28    29   ar
    13    49    46    1
    14    46    45   ar
    15    46    47   ar
    16    44    45   ar
    17    44    50    1
    18    44    43   ar
    19    45    53    1
    20    50    51    3
    21    48    47    1
    22    47    43   ar
    23    51    52    1
    24    43    32    1
    25    22    18    1
    26     2     8    1
    27     2     1   ar
    28     2     3   ar
    29     8    11    1
    30     8     9    1
    31     6     5    1
    32     4    17    1
    33     4     5   ar
    34     4     3   ar
    35    32    31   ar
    36    17    16   ar
    37    17    18   ar
    38    23    24    3
    39    24    16    1
    40     5     1   ar
    41    16    21   ar
    42    18    19   ar
    43     1     7    1
    44     3    12    1
    45    21    20   ar
    46    19    20   ar
    47    19    25    1
    48    20    29    1
    49    25    26    3
    50    26    27    1
    51    29    30   ar
    52    12    15    1
    53    12    13    1
    54    31    30   ar
    55    31    40    1
    56    30    34    1
