@<TRIPOS>MOLECULE
mol_data/noopt/geoms/mol2/13ii12le(140)4li(190)4ll(210).out
 64 67 0 0 0
SMALL
GASTEIGER

@<TRIPOS>ATOM
      1 C           1.1215   -0.3259    0.0002 C.ar    1  LIG1        0.0054
      2 C           0.7176    0.9721   -0.0005 C.ar    1  LIG1       -0.0296
      3 C          -0.7144    0.9744    0.0003 C.ar    1  LIG1       -0.0192
      4 C          -1.1226   -0.3223   -0.0003 C.ar    1  LIG1        0.0890
      5 N          -0.0018   -1.1217    0.0001 N.ar    1  LIG1       -0.3577
      6 H          -0.0034   -2.1157   -0.0003 H       1  LIG1        0.1654
      7 H           2.3167   -0.8373    0.0007 H       1  LIG1        0.0810
      8 C           1.4920    2.0167   -0.0003 C.3     1  LIG1       -0.0380
      9 H           1.0026    2.8234    0.5042 H       1  LIG1        0.0278
     10 H           1.7045    2.3034   -1.0091 H       1  LIG1        0.0278
     11 H           2.4062    1.7828    0.5041 H       1  LIG1        0.0278
     12 C          -1.4855    2.0214    0.0010 C.3     1  LIG1       -0.0374
     13 H          -2.4003    1.7904    0.5056 H       1  LIG1        0.0278
     14 H          -1.6974    2.3090   -1.0077 H       1  LIG1        0.0278
     15 H          -0.9933    2.8265    0.5056 H       1  LIG1        0.0278
     16 C          -2.3194   -0.8299   -0.0001 C.ar    1  LIG1        0.1946
     17 C          -2.9203   -1.9315    0.5731 C.ar    1  LIG1        0.1832
     18 C          -4.3079   -1.9090    0.1598 C.ar    1  LIG1        0.1128
     19 C          -4.4631   -0.7947   -0.6388 C.ar    1  LIG1        0.1583
     20 O          -3.2509   -0.1129   -0.7523 O.2     1  LIG1       -0.4482
     21 O          -2.3724   -2.8290    1.3375 O.3     1  LIG1       -0.4901
     22 C          -3.3218   -3.8609    1.6181 C.3     1  LIG1        0.0790
     23 H          -2.8705   -4.5994    2.2472 H       1  LIG1        0.0660
     24 H          -4.1704   -3.4393    2.1153 H       1  LIG1        0.0660
     25 H          -3.6351   -4.3161    0.7019 H       1  LIG1        0.0660
     26 C          -5.2116   -2.7827    0.4918 C.1     1  LIG1       -0.0621
     27 C          -6.0465   -3.5899    0.7986 C.1     1  LIG1       -0.1137
     28 H          -6.7903   -4.3090    1.0719 H       1  LIG1        0.1232
     29 C          -6.4691   -1.0632   -1.8252 C.ar    1  LIG1        0.1314
     30 C          -7.5139   -0.4266   -2.5227 C.ar    1  LIG1       -0.0112
     31 C          -5.4487   -0.2513   -1.2893 C.ar    1  LIG1        0.0605
     32 C          -7.5437    0.9572   -2.6802 C.ar    1  LIG1       -0.0079
     33 H          -8.3114   -1.0343   -2.9444 H       1  LIG1        0.0660
     34 C          -5.4780    1.1303   -1.4463 C.ar    1  LIG1       -0.0440
     35 C          -6.5247    1.7441   -2.1421 C.ar    1  LIG1       -0.0417
     36 H          -4.6793    1.7347   -1.0238 H       1  LIG1        0.0629
     37 O          -6.4963   -2.3580   -1.7108 O.3     1  LIG1       -0.4944
     38 C          -7.8539   -2.8050   -1.6689 C.3     1  LIG1        0.0788
     39 H          -7.8759   -3.8706   -1.5750 H       1  LIG1        0.0660
     40 H          -8.3494   -2.3627   -0.8299 H       1  LIG1        0.0660
     41 H          -8.3526   -2.5161   -2.5705 H       1  LIG1        0.0660
     42 C          -6.5466    3.0362   -2.2859 C.3     1  LIG1       -0.0391
     43 H          -7.4271    3.4316   -1.8240 H       1  LIG1        0.0278
     44 H          -6.5508    3.2791   -3.3280 H       1  LIG1        0.0278
     45 H          -5.6801    3.4612   -1.8240 H       1  LIG1        0.0278
     46 C          -9.3083    0.7399   -4.2109 C.ar    1  LIG1        0.1280
     47 C         -10.3569    1.3878   -4.8921 C.ar    1  LIG1       -0.0159
     48 C          -8.5236    1.5118   -3.3299 C.ar    1  LIG1        0.0276
     49 C         -10.6150    2.7439   -4.7055 C.ar    1  LIG1       -0.0165
     50 H         -10.9746    0.8109   -5.5768 H       1  LIG1        0.0655
     51 C          -8.7808    2.8658   -3.1432 C.ar    1  LIG1       -0.0087
     52 C          -9.8274    3.4911   -3.8288 C.ar    1  LIG1        0.1209
     53 H          -8.1614    3.4395   -2.4585 H       1  LIG1        0.0661
     54 H         -11.5914    3.3099   -5.3507 H       1  LIG1        0.0655
     55 O          -9.1165   -0.5277   -4.4262 O.3     1  LIG1       -0.4945
     56 C         -10.3790   -1.1947   -4.5053 C.3     1  LIG1        0.0788
     57 H         -10.2207   -2.2380   -4.6827 H       1  LIG1        0.0660
     58 H         -10.9088   -1.0658   -3.5846 H       1  LIG1        0.0660
     59 H         -10.9521   -0.7795   -5.3077 H       1  LIG1        0.0660
     60 O         -10.0630    4.7571   -3.6504 O.3     1  LIG1       -0.4951
     61 C          -8.8243    5.4686   -3.5850 C.3     1  LIG1        0.0788
     62 H          -9.0186    6.5105   -3.4383 H       1  LIG1        0.0660
     63 H          -8.2417    5.0961   -2.7684 H       1  LIG1        0.0660
     64 H          -8.2855    5.3315   -4.4992 H       1  LIG1        0.0660
@<TRIPOS>BOND
     1    50    47    1
     2    54    49    1
     3    59    56    1
     4    47    49   ar
     5    47    46   ar
     6    49    52   ar
     7    57    56    1
     8    56    55    1
     9    56    58    1
    10    64    61    1
    11    55    46    1
    12    46    48   ar
    13    52    60    1
    14    52    51   ar
    15    60    61    1
    16    61    62    1
    17    61    63    1
    18    48    51   ar
    19    48    32    1
    20    44    42    1
    21    51    53    1
    22    33    30    1
    23    32    30   ar
    24    32    35   ar
    25    41    38    1
    26    30    29   ar
    27    42    35    1
    28    42    45    1
    29    42    43    1
    30    35    34   ar
    31    29    37    1
    32    29    31   ar
    33    37    38    1
    34    38    39    1
    35    38    40    1
    36    34    31   ar
    37    34    36    1
    38    31    19    1
    39    10     8    1
    40    14    12    1
    41    20    19   ar
    42    20    16   ar
    43    19    18   ar
    44     2     8    1
    45     2     1   ar
    46     2     3   ar
    47     4    16    1
    48     4     5   ar
    49     4     3   ar
    50     6     5    1
    51     8    11    1
    52     8     9    1
    53    16    17   ar
    54     5     1   ar
    55     1     7    1
    56     3    12    1
    57    12    15    1
    58    12    13    1
    59    18    26    1
    60    18    17   ar
    61    26    27    3
    62    17    21    1
    63    25    22    1
    64    27    28    1
    65    21    22    1
    66    22    24    1
    67    22    23    1
