@<TRIPOS>MOLECULE
mol_data/noopt/geoms/mol2/13ii13ii-13ii-13ii-.out
 58 61 0 0 0
SMALL
GASTEIGER

@<TRIPOS>ATOM
      1 C           1.1215   -0.3259    0.0002 C.ar    1  LIG1        0.0054
      2 C           0.7176    0.9721   -0.0005 C.ar    1  LIG1       -0.0296
      3 C          -0.7144    0.9744    0.0003 C.ar    1  LIG1       -0.0209
      4 C          -1.1226   -0.3223   -0.0003 C.ar    1  LIG1        0.0663
      5 N          -0.0018   -1.1217    0.0001 N.ar    1  LIG1       -0.3590
      6 H          -0.0034   -2.1157   -0.0003 H       1  LIG1        0.1654
      7 H           2.3167   -0.8373    0.0007 H       1  LIG1        0.0810
      8 C           1.4920    2.0167   -0.0003 C.3     1  LIG1       -0.0380
      9 H           1.0026    2.8234    0.5042 H       1  LIG1        0.0278
     10 H           1.7045    2.3034   -1.0091 H       1  LIG1        0.0278
     11 H           2.4062    1.7828    0.5041 H       1  LIG1        0.0278
     12 C          -1.4855    2.0214    0.0010 C.3     1  LIG1       -0.0374
     13 H          -2.4003    1.7904    0.5056 H       1  LIG1        0.0278
     14 H          -1.6974    2.3090   -1.0077 H       1  LIG1        0.0278
     15 H          -0.9933    2.8265    0.5056 H       1  LIG1        0.0278
     16 C          -2.3194   -0.8299   -0.0001 C.ar    1  LIG1        0.0668
     17 C          -2.7274   -2.1266   -0.0005 C.ar    1  LIG1       -0.0202
     18 C          -4.1594   -2.1244    0.0011 C.ar    1  LIG1       -0.0202
     19 C          -4.5635   -0.8264    0.0006 C.ar    1  LIG1        0.0668
     20 N          -3.4402   -0.0305    0.0003 N.ar    1  LIG1       -0.3514
     21 H          -3.4386    0.9635   -0.0001 H       1  LIG1        0.1660
     22 C          -1.9564   -3.1736   -0.0006 C.3     1  LIG1       -0.0374
     23 H          -1.0413   -2.9428    0.5038 H       1  LIG1        0.0278
     24 H          -1.7448   -3.4607   -1.0095 H       1  LIG1        0.0278
     25 H          -2.4483   -3.9789    0.5037 H       1  LIG1        0.0278
     26 C          -4.9338   -3.1690    0.0023 C.3     1  LIG1       -0.0374
     27 H          -4.4441   -3.9754    0.5071 H       1  LIG1        0.0278
     28 H          -5.1467   -3.4563   -1.0062 H       1  LIG1        0.0278
     29 H          -5.8478   -2.9348    0.5070 H       1  LIG1        0.0278
     30 C          -5.7587   -0.3150    0.0014 C.ar    1  LIG1        0.0668
     31 C          -6.9765   -0.9191    0.0015 C.ar    1  LIG1       -0.0202
     32 C          -7.9670    0.1151    0.0037 C.ar    1  LIG1       -0.0202
     33 C          -7.3109    1.3057    0.0031 C.ar    1  LIG1        0.0668
     34 N          -5.9587    1.0470    0.0022 N.ar    1  LIG1       -0.3514
     35 H          -5.2408    1.7345    0.0016 H       1  LIG1        0.1660
     36 C          -7.1973   -2.2005    0.0012 C.3     1  LIG1       -0.0374
     37 H          -6.3970   -2.7005    0.5056 H       1  LIG1        0.0278
     38 H          -7.2578   -2.5518   -1.0077 H       1  LIG1        0.0278
     39 H          -8.1189   -2.4037    0.5055 H       1  LIG1        0.0278
     40 C          -9.2567   -0.0501    0.0054 C.3     1  LIG1       -0.0374
     41 H          -9.4988   -0.9619    0.5103 H       1  LIG1        0.0278
     42 H          -9.6119   -0.0957   -1.0029 H       1  LIG1        0.0278
     43 H          -9.7208    0.7712    0.5103 H       1  LIG1        0.0278
     44 C          -7.7701    2.5219    0.0044 C.ar    1  LIG1        0.0663
     45 C          -9.0494    2.9816    0.0047 C.ar    1  LIG1       -0.0209
     46 C          -8.9898    4.4124    0.0074 C.ar    1  LIG1       -0.0296
     47 C          -7.6767    4.7641    0.0068 C.ar    1  LIG1        0.0054
     48 N          -6.9265    3.6098    0.0054 N.ar    1  LIG1       -0.3590
     49 H          -5.9333    3.5684    0.0046 H       1  LIG1        0.1654
     50 H          -7.1178    5.9378    0.0083 H       1  LIG1        0.0810
     51 C         -10.1265    2.2531    0.0043 C.3     1  LIG1       -0.0374
     52 H          -9.9326    1.3295    0.5087 H       1  LIG1        0.0278
     53 H         -10.4217    2.0534   -1.0046 H       1  LIG1        0.0278
     54 H         -10.9115    2.7769    0.5086 H       1  LIG1        0.0278
     55 C         -10.0025    5.2280    0.0095 C.3     1  LIG1       -0.0380
     56 H         -10.8277    4.7708    0.5145 H       1  LIG1        0.0278
     57 H         -10.2816    5.4527   -0.9988 H       1  LIG1        0.0278
     58 H          -9.7316    6.1316    0.5144 H       1  LIG1        0.0278
@<TRIPOS>BOND
     1    24    22    1
     2    10     8    1
     3    38    36    1
     4    14    12    1
     5    28    26    1
     6    53    51    1
     7    42    40    1
     8    57    55    1
     9    22    17    1
    10    22    25    1
    11    22    23    1
    12     2     8    1
    13     2     1   ar
    14     2     3   ar
    15    17    16   ar
    16    17    18   ar
    17     8    11    1
    18     8     9    1
    19     4    16    1
    20     4     5   ar
    21     4     3   ar
    22     6     5    1
    23    21    20    1
    24    16    20   ar
    25     5     1   ar
    26     1     7    1
    27     3    12    1
    28    20    19   ar
    29    19    18   ar
    30    19    30    1
    31    12    15    1
    32    12    13    1
    33    18    26    1
    34    36    31    1
    35    36    39    1
    36    36    37    1
    37    30    31   ar
    38    30    34   ar
    39    31    32   ar
    40    35    34    1
    41    34    33   ar
    42    26    29    1
    43    26    27    1
    44    33    32   ar
    45    33    44    1
    46    32    40    1
    47    51    45    1
    48    51    54    1
    49    51    52    1
    50    44    45   ar
    51    44    48   ar
    52    49    48    1
    53    45    46   ar
    54    48    47   ar
    55    40    43    1
    56    40    41    1
    57    47    46   ar
    58    47    50    1
    59    46    55    1
    60    55    58    1
    61    55    56    1
