@<TRIPOS>MOLECULE
mol_data/noopt/geoms/mol2/13ii6ei(250)6ae(100)6fh(70).out
 53 56 0 0 0
SMALL
GASTEIGER

@<TRIPOS>ATOM
      1 C           1.1215   -0.3259    0.0002 C.ar    1  LIG1        0.0053
      2 C           0.7176    0.9721   -0.0005 C.ar    1  LIG1       -0.0297
      3 C          -0.7144    0.9744    0.0003 C.ar    1  LIG1       -0.0222
      4 C          -1.1226   -0.3223   -0.0003 C.ar    1  LIG1        0.0524
      5 N          -0.0018   -1.1217    0.0001 N.ar    1  LIG1       -0.3601
      6 H          -0.0034   -2.1157   -0.0003 H       1  LIG1        0.1654
      7 H           2.3167   -0.8373    0.0007 H       1  LIG1        0.0810
      8 C           1.4920    2.0167   -0.0003 C.3     1  LIG1       -0.0380
      9 H           1.0026    2.8234    0.5042 H       1  LIG1        0.0278
     10 H           1.7045    2.3034   -1.0091 H       1  LIG1        0.0278
     11 H           2.4062    1.7828    0.5041 H       1  LIG1        0.0278
     12 C          -1.4855    2.0214    0.0010 C.3     1  LIG1       -0.0375
     13 H          -2.4003    1.7904    0.5056 H       1  LIG1        0.0278
     14 H          -1.6974    2.3090   -1.0077 H       1  LIG1        0.0278
     15 H          -0.9933    2.8265    0.5056 H       1  LIG1        0.0278
     16 C          -3.1362   -0.7248    1.1406 C.ar    1  LIG1        0.1229
     17 C          -2.3194   -0.8299   -0.0001 C.ar    1  LIG1        0.0327
     18 C          -2.8240   -1.4882   -1.1231 C.ar    1  LIG1       -0.0450
     19 C          -4.1157   -2.0147   -1.0695 C.ar    1  LIG1       -0.0237
     20 C          -4.8555   -1.8591    0.1171 C.ar    1  LIG1        0.0768
     21 N          -4.3844   -1.2268    1.2096 N.ar    1  LIG1       -0.2374
     22 H          -2.2147   -1.5908   -2.0322 H       1  LIG1        0.0628
     23 C          -2.7110   -0.1211    2.2104 C.1     1  LIG1       -0.0491
     24 C          -2.3180    0.4368    3.1990 C.1     1  LIG1       -0.1124
     25 H          -1.9680    0.9337    4.0796 H       1  LIG1        0.1232
     26 C          -4.6309   -2.6366   -2.0886 C.3     1  LIG1       -0.0377
     27 H          -4.3517   -3.6690   -2.0548 H       1  LIG1        0.0278
     28 H          -4.2678   -2.1984   -2.9947 H       1  LIG1        0.0278
     29 H          -5.6972   -2.5542   -2.0548 H       1  LIG1        0.0278
     30 C          -6.8840   -2.4272   -0.9226 C.ar    1  LIG1        0.0375
     31 C          -6.0625   -2.3319    0.2156 C.ar    1  LIG1        0.0199
     32 C          -6.5734   -2.7552    1.4439 C.ar    1  LIG1       -0.0336
     33 C          -7.8759   -3.2549    1.4937 C.ar    1  LIG1        0.0514
     34 C          -8.6198   -3.3106    0.3009 C.ar    1  LIG1        0.0915
     35 N          -8.1426   -2.9067   -0.8926 N.ar    1  LIG1       -0.2529
     36 H          -5.9615   -2.6950    2.3551 H       1  LIG1        0.0637
     37 H          -6.4531   -2.0459   -2.0883 H       1  LIG1        0.0836
     38 C          -8.3973   -3.6616    2.6130 C.1     1  LIG1       -0.0675
     39 C          -8.8792   -4.0373    3.6472 C.1     1  LIG1       -0.1138
     40 H          -9.3084   -4.3720    4.5684 H       1  LIG1        0.1232
     41 C         -10.3523   -4.4058   -0.8469 C.ar    1  LIG1        0.2218
     42 C          -9.8367   -3.7679    0.2962 C.ar    1  LIG1        0.0646
     43 C         -10.6596   -3.6403    1.4167 C.ar    1  LIG1       -0.0252
     44 C         -11.9581   -4.1492    1.3583 C.ar    1  LIG1        0.0438
     45 C         -12.3830   -4.7706    0.1696 C.ar    1  LIG1        0.0520
     46 N         -11.6024   -4.9025   -0.9206 N.ar    1  LIG1       -0.2191
     47 H         -10.2919   -3.1470    2.3276 H       1  LIG1        0.0645
     48 H         -13.5829   -5.2600    0.0667 H       1  LIG1        0.0849
     49 O          -9.6246   -4.5487   -1.9146 O.3     1  LIG1       -0.4919
     50 H          -9.2709   -3.6959   -2.1778 H       1  LIG1        0.2937
     51 N         -12.7632   -4.0551    2.3747 N.pl3   1  LIG1       -0.3568
     52 H         -13.2409   -3.1773    2.3414 H       1  LIG1        0.1424
     53 H         -13.4305   -4.7992    2.3414 H       1  LIG1        0.1424
@<TRIPOS>BOND
     1    28    26    1
     2    50    49    1
     3    26    29    1
     4    26    27    1
     5    26    19    1
     6    37    30    1
     7    22    18    1
     8    49    41    1
     9    18    19   ar
    10    18    17   ar
    11    19    20   ar
    12    10     8    1
    13    14    12    1
    14    30    35   ar
    15    30    31   ar
    16    46    41   ar
    17    46    45   ar
    18    35    34   ar
    19    41    42   ar
    20     2     8    1
    21     2     1   ar
    22     2     3   ar
    23     4    17    1
    24     4     5   ar
    25     4     3   ar
    26     8    11    1
    27     8     9    1
    28     6     5    1
    29    17    16   ar
    30     5     1   ar
    31     1     7    1
    32     3    12    1
    33    12    15    1
    34    12    13    1
    35    48    45    1
    36    20    31    1
    37    20    21   ar
    38    45    44   ar
    39    31    32   ar
    40    42    34    1
    41    42    43   ar
    42    34    33   ar
    43    16    21   ar
    44    16    23    1
    45    44    43   ar
    46    44    51    1
    47    43    47    1
    48    32    33   ar
    49    32    36    1
    50    33    38    1
    51    23    24    3
    52    53    51    1
    53    52    51    1
    54    38    39    3
    55    24    25    1
    56    39    40    1
