@<TRIPOS>MOLECULE
mol_data/noopt/geoms/mol2/13ii4hh13il12ii-.out
 58 60 0 0 0
SMALL
GASTEIGER

@<TRIPOS>ATOM
      1 C           1.1215   -0.3259    0.0002 C.ar    1  LIG1        0.0057
      2 C           0.7176    0.9721   -0.0005 C.ar    1  LIG1       -0.0248
      3 C          -0.7144    0.9744    0.0003 C.ar    1  LIG1        0.0126
      4 C          -1.1226   -0.3223   -0.0003 C.ar    1  LIG1        0.0564
      5 N          -0.0018   -1.1217    0.0001 N.ar    1  LIG1       -0.3599
      6 H          -0.0034   -2.1157   -0.0003 H       1  LIG1        0.1654
      7 H           2.3167   -0.8373    0.0007 H       1  LIG1        0.0810
      8 C           1.4920    2.0167   -0.0003 C.3     1  LIG1       -0.0377
      9 H           1.0026    2.8234    0.5042 H       1  LIG1        0.0278
     10 H           1.7045    2.3034   -1.0091 H       1  LIG1        0.0278
     11 H           2.4062    1.7828    0.5041 H       1  LIG1        0.0278
     12 C          -1.4855    2.0214    0.0010 C.3     2  LIG2       -0.0681
     13 H          -2.4003    1.7904    0.5056 H       1  LIG1        0.0227
     14 H          -1.6974    2.3090   -1.0077 H       1  LIG1        0.0227
     15 H          -0.9933    2.8265    0.5056 H       1  LIG1        0.0227
     16 C          -3.4434    0.0212    0.0008 C.ar    1  LIG1        0.0345
     17 C          -4.7180   -0.5776    0.0025 C.ar    1  LIG1       -0.0295
     18 C          -2.3194   -0.8299   -0.0001 C.ar    1  LIG1        0.0213
     19 C          -4.8692   -1.9625    0.0027 C.ar    1  LIG1        0.0211
     20 H          -5.5988    0.0606    0.0034 H       1  LIG1        0.0643
     21 C          -2.4697   -2.2124    0.0001 C.ar    1  LIG1       -0.0295
     22 C          -3.7444   -2.7884    0.0015 C.ar    1  LIG1        0.0345
     23 H          -1.5874   -2.8474   -0.0005 H       1  LIG1        0.0643
     24 N          -3.3661    1.3190    0.0004 N.pl3   1  LIG1       -0.3574
     25 H          -2.5313    1.6030   -0.4712 H       1  LIG1        0.1423
     26 H          -4.1613    1.7001   -0.4712 H       1  LIG1        0.1423
     27 N          -3.8788   -4.0814    0.0018 N.pl3   1  LIG1       -0.3574
     28 H          -4.7254   -4.3287   -0.4695 H       1  LIG1        0.1423
     29 H          -3.1012   -4.4975   -0.4695 H       1  LIG1        0.1423
     30 C          -6.0610   -2.4816    0.0042 C.ar    1  LIG1        0.0553
     31 C          -7.2826   -1.8856    0.0215 C.ar    1  LIG1        0.0173
     32 C          -8.2663   -2.9262    0.0153 C.ar    1  LIG1        0.1518
     33 C          -7.6026   -4.1124   -0.0072 C.ar    1  LIG1        0.1252
     34 N          -6.2522   -3.8448   -0.0136 N.ar    1  LIG1       -0.3485
     35 H          -5.5299   -4.5275   -0.0293 H       1  LIG1        0.1661
     36 C          -7.5117   -0.6058    0.0415 C.3     1  LIG1       -0.0342
     37 H          -8.4332   -0.4163    0.5514 H       1  LIG1        0.0279
     38 H          -7.5774   -0.2394   -0.9617 H       1  LIG1        0.0279
     39 H          -6.7132   -0.1085    0.5513 H       1  LIG1        0.0279
     40 O          -9.5568   -2.7695    0.0283 O.3     1  LIG1       -0.4926
     41 C          -9.8681   -1.3738    0.0330 C.3     1  LIG1        0.0789
     42 H         -10.9303   -1.2453    0.0436 H       1  LIG1        0.0660
     43 H          -9.4450   -0.9169    0.9032 H       1  LIG1        0.0660
     44 H          -9.4620   -0.9148   -0.8440 H       1  LIG1        0.0660
     45 C          -8.0539   -5.3314   -0.0207 C.ar    1  LIG1        0.1576
     46 C          -9.3026   -5.9179   -0.0161 C.ar    1  LIG1       -0.0003
     47 C          -9.0884   -7.3498   -0.0399 C.ar    1  LIG1       -0.0092
     48 C          -7.7225   -7.5435   -0.0576 C.ar    1  LIG1        0.0958
     49 O          -7.0631   -6.3139   -0.0463 O.2     1  LIG1       -0.4608
     50 H          -6.9337   -8.5766   -0.0816 H       1  LIG1        0.1032
     51 C         -10.4600   -5.3255    0.0054 C.3     1  LIG1       -0.0358
     52 H         -11.1680   -5.9446    0.5156 H       1  LIG1        0.0279
     53 H         -10.7923   -5.1555   -0.9975 H       1  LIG1        0.0279
     54 H         -10.3720   -4.3891    0.5155 H       1  LIG1        0.0279
     55 C         -10.0213   -8.2556   -0.0435 C.3     1  LIG1       -0.0365
     56 H          -9.6696   -9.1319    0.4600 H       1  LIG1        0.0279
     57 H         -10.2752   -8.5022   -1.0533 H       1  LIG1        0.0279
     58 H         -10.8868   -7.8782    0.4599 H       1  LIG1        0.0279
@<TRIPOS>BOND
     1    57    55    1
     2    10     8    1
     3    14    12    1
     4    53    51    1
     5    38    36    1
     6    44    41    1
     7    26    24    1
     8    25    24    1
     9    29    27    1
    10    28    27    1
    11    50    48    1
    12    48    49   ar
    13    48    47   ar
    14    49    45   ar
    15    55    47    1
    16    55    58    1
    17    55    56    1
    18    47    46   ar
    19    35    34    1
    20    45    46   ar
    21    45    33    1
    22    46    51    1
    23    34    33   ar
    24    34    30   ar
    25    33    32   ar
    26     2     8    1
    27     2     1   ar
    28     2     3   ar
    29    23    21    1
    30     8    11    1
    31     8     9    1
    32     6     5    1
    33     4    18    1
    34     4     5   ar
    35     4     3   ar
    36    18    21   ar
    37    18    16   ar
    38     5     1   ar
    39    21    22   ar
    40     1     7    1
    41    24    16    1
    42    16    17   ar
    43    12    15    1
    44    12    13    1
    45    22    27    1
    46    22    19   ar
    47    17    19   ar
    48    17    20    1
    49    19    30    1
    50    30    31   ar
    51    51    54    1
    52    51    52    1
    53    32    31   ar
    54    32    40    1
    55    31    36    1
    56    40    41    1
    57    41    42    1
    58    41    43    1
    59    36    39    1
    60    36    37    1
