@<TRIPOS>MOLECULE
mol_data/noopt/geoms/mol2/13ii.out
 16 16 0 0 0
SMALL
GASTEIGER

@<TRIPOS>ATOM
      1 C           1.1215   -0.3259    0.0002 C.ar    1  LIG1        0.0048
      2 C           0.7176    0.9721   -0.0005 C.ar    1  LIG1       -0.0303
      3 C          -0.7144    0.9744    0.0003 C.ar    1  LIG1       -0.0303
      4 C          -1.1226   -0.3223   -0.0003 C.ar    1  LIG1        0.0048
      5 N          -0.0018   -1.1217    0.0001 N.ar    1  LIG1       -0.3665
      6 H          -0.0034   -2.1157   -0.0003 H       1  LIG1        0.1648
      7 H          -2.3194   -0.8299   -0.0001 H       1  LIG1        0.0809
      8 H           2.3167   -0.8373    0.0007 H       1  LIG1        0.0809
      9 C           1.4920    2.0167   -0.0003 C.3     1  LIG1       -0.0381
     10 H           1.0026    2.8234    0.5042 H       1  LIG1        0.0278
     11 H           1.7045    2.3034   -1.0091 H       1  LIG1        0.0278
     12 H           2.4062    1.7828    0.5041 H       1  LIG1        0.0278
     13 C          -1.4855    2.0214    0.0010 C.3     1  LIG1       -0.0381
     14 H          -2.4003    1.7904    0.5056 H       1  LIG1        0.0278
     15 H          -1.6974    2.3090   -1.0077 H       1  LIG1        0.0278
     16 H          -0.9933    2.8265    0.5056 H       1  LIG1        0.0278
@<TRIPOS>BOND
     1    11     9    1
     2    15    13    1
     3     2     9    1
     4     2     1   ar
     5     2     3   ar
     6     4     7    1
     7     4     5   ar
     8     4     3   ar
     9     6     5    1
    10     9    12    1
    11     9    10    1
    12     5     1   ar
    13     1     8    1
    14     3    13    1
    15    13    16    1
    16    13    14    1
