@<TRIPOS>MOLECULE
mol_data/noopt/geoms/mol2/13ii6fa-13ia-12fh-12fl-6ea-4ei-6lf-.out
 99 105 0 0 0
SMALL
GASTEIGER

@<TRIPOS>ATOM
      1 C           1.1215   -0.3259    0.0002 C.ar    1  LIG1        0.0053
      2 C           0.7176    0.9721   -0.0005 C.ar    1  LIG1       -0.0297
      3 C          -0.7144    0.9744    0.0003 C.ar    1  LIG1       -0.0221
      4 C          -1.1226   -0.3223   -0.0003 C.ar    1  LIG1        0.0548
      5 N          -0.0018   -1.1217    0.0001 N.ar    1  LIG1       -0.3600
      6 H          -0.0034   -2.1157   -0.0003 H       1  LIG1        0.1654
      7 H           2.3167   -0.8373    0.0007 H       1  LIG1        0.0810
      8 C           1.4920    2.0167   -0.0003 C.3     1  LIG1       -0.0380
      9 H           1.0026    2.8234    0.5042 H       1  LIG1        0.0278
     10 H           1.7045    2.3034   -1.0091 H       1  LIG1        0.0278
     11 H           2.4062    1.7828    0.5041 H       1  LIG1        0.0278
     12 C          -1.4855    2.0214    0.0010 C.3     1  LIG1       -0.0375
     13 H          -2.4003    1.7904    0.5056 H       1  LIG1        0.0278
     14 H          -1.6974    2.3090   -1.0077 H       1  LIG1        0.0278
     15 H          -0.9933    2.8265    0.5056 H       1  LIG1        0.0278
     16 C          -2.5002   -2.2250   -0.0210 C.ar    1  LIG1        0.2222
     17 C          -2.3194   -0.8299   -0.0001 C.ar    1  LIG1        0.0599
     18 C          -3.4501   -0.0114    0.0210 C.ar    1  LIG1       -0.0454
     19 C          -4.7120   -0.6083    0.0204 C.ar    1  LIG1       -0.0334
     20 C          -4.7903   -2.0130   -0.0016 C.ar    1  LIG1        0.0912
     21 N          -3.7099   -2.8177   -0.0220 N.ar    1  LIG1       -0.2110
     22 H          -3.3484    1.0830    0.0367 H       1  LIG1        0.0626
     23 O          -1.4782   -3.0283   -0.0410 O.3     1  LIG1       -0.4919
     24 H          -0.6671   -2.5149   -0.0459 H       1  LIG1        0.2937
     25 H          -5.7953    0.1100    0.0393 H       1  LIG1        0.0640
     26 C          -5.9424   -2.6153   -0.0030 C.ar    1  LIG1        0.0685
     27 C          -7.2032   -2.1072   -0.0044 C.ar    1  LIG1       -0.0230
     28 C          -8.1107   -3.2150   -0.0045 C.ar    1  LIG1       -0.0297
     29 C          -7.3644   -4.3513   -0.0050 C.ar    1  LIG1        0.0866
     30 N          -6.0364   -3.9887   -0.0037 N.ar    1  LIG1       -0.3503
     31 H          -5.2674   -4.6186   -0.0038 H       1  LIG1        0.1660
     32 C          -7.5226   -0.8467   -0.0040 C.3     1  LIG1       -0.0376
     33 H          -8.4570   -0.7157    0.5006 H       1  LIG1        0.0278
     34 H          -7.6103   -0.5007   -1.0127 H       1  LIG1        0.0278
     35 H          -6.7632   -0.2866    0.5005 H       1  LIG1        0.0278
     36 H          -9.4091   -3.1501   -0.0046 H       1  LIG1        0.0643
     37 C          -7.7282   -5.5993   -0.0055 C.ar    1  LIG1        0.1950
     38 C          -8.9321   -6.2728    0.0090 C.ar    1  LIG1        0.1861
     39 C          -8.6169   -7.6861   -0.0021 C.ar    1  LIG1        0.1170
     40 C          -7.2407   -7.7826   -0.0227 C.ar    1  LIG1        0.1987
     41 O          -6.6702   -6.5093   -0.0253 O.2     1  LIG1       -0.4444
     42 O         -10.1282   -5.7640    0.0289 O.3     1  LIG1       -0.5019
     43 H         -10.7773   -6.4713    0.0338 H       1  LIG1        0.2924
     44 N          -9.4830   -8.6556    0.0061 N.pl3   1  LIG1       -0.3521
     45 H         -10.3159   -8.3624   -0.4632 H       1  LIG1        0.1425
     46 H          -9.0982   -9.4503   -0.4633 H       1  LIG1        0.1425
     47 C          -6.3807   -8.7573   -0.0398 C.ar    1  LIG1        0.2175
     48 C          -6.4555  -10.1347   -0.0526 C.ar    1  LIG1        0.2092
     49 C          -5.0928  -10.6240   -0.0693 C.ar    1  LIG1        0.2085
     50 C          -4.2752   -9.5126   -0.0655 C.ar    1  LIG1        0.1837
     51 O          -5.0460   -8.3497   -0.0475 O.2     1  LIG1       -0.4439
     52 O          -7.5253  -10.8735   -0.0505 O.3     1  LIG1       -0.5007
     53 H          -7.2747  -11.8002   -0.0500 H       1  LIG1        0.2924
     54 O          -4.7368  -11.8743   -0.0846 O.3     1  LIG1       -0.4884
     55 C          -5.9026  -12.7024   -0.0903 C.3     1  LIG1        0.0791
     56 H          -5.6092  -13.7313   -0.1032 H       1  LIG1        0.0660
     57 H          -6.4826  -12.5079    0.7876 H       1  LIG1        0.0660
     58 H          -6.4884  -12.4877   -0.9596 H       1  LIG1        0.0660
     59 C          -2.4816   -7.9961   -0.1006 C.ar    1  LIG1        0.1246
     60 C          -2.9916   -9.3070   -0.0746 C.ar    1  LIG1        0.0549
     61 C          -2.0901  -10.3729   -0.0587 C.ar    1  LIG1       -0.0463
     62 C          -0.7219  -10.0961   -0.0693 C.ar    1  LIG1       -0.0349
     63 C          -0.3091   -8.7513   -0.0957 C.ar    1  LIG1        0.0736
     64 N          -1.1650   -7.7109   -0.1112 N.ar    1  LIG1       -0.2377
     65 H          -2.4513  -11.4109   -0.0393 H       1  LIG1        0.0626
     66 C          -3.2810   -6.9710   -0.1161 C.1     1  LIG1       -0.0491
     67 C          -4.0197   -6.0239   -0.1305 C.1     1  LIG1       -0.1124
     68 H          -4.6777   -5.1803   -0.1432 H       1  LIG1        0.1232
     69 H           0.1575  -11.0533   -0.0555 H       1  LIG1        0.0639
     70 C           1.9262   -9.4637   -0.0901 C.ar    1  LIG1        0.0344
     71 C           3.2806   -9.0778   -0.1012 C.ar    1  LIG1       -0.0375
     72 C           0.9537   -8.4430   -0.1064 C.ar    1  LIG1        0.0160
     73 C           3.6525   -7.7355   -0.1278 C.ar    1  LIG1       -0.0083
     74 H           4.0472   -9.8493   -0.0887 H       1  LIG1        0.0636
     75 C           1.3245   -7.1029   -0.1331 C.ar    1  LIG1       -0.0476
     76 C           2.6752   -6.7396   -0.1441 C.ar    1  LIG1       -0.0385
     77 H           0.5558   -6.3343   -0.1452 H       1  LIG1        0.0627
     78 C           1.6412  -10.7318   -0.0654 C.1     1  LIG1       -0.0690
     79 C           1.3779  -11.9036   -0.0425 C.1     1  LIG1       -0.1139
     80 H           1.1434  -12.9474   -0.0221 H       1  LIG1        0.1232
     81 C           3.0159   -5.4850   -0.1688 C.3     1  LIG1       -0.0231
     82 H           2.2688   -4.9026    0.3287 H       1  LIG1        0.0316
     83 H           3.1042   -5.1593   -1.1843 H       1  LIG1        0.0316
     84 H           3.9550   -5.3605    0.3286 H       1  LIG1        0.2937
     85 C           5.3019   -6.0633   -0.1637 C.ar    1  LIG1        0.2204
     86 C           4.9123   -7.4149   -0.1375 C.ar    1  LIG1        0.0472
     87 C           5.9063   -8.3951   -0.1218 C.ar    1  LIG1       -0.0059
     88 C           7.2439   -7.9960   -0.1330 C.ar    1  LIG1        0.1357
     89 C           7.5337   -6.6195   -0.1597 C.ar    1  LIG1        0.0728
     90 N           6.5874   -5.6605   -0.1749 N.ar    1  LIG1       -0.2173
     91 H           5.6402   -9.4615   -0.1022 H       1  LIG1        0.0662
     92 H           8.7635   -6.1985   -0.1709 H       1  LIG1        0.0868
     93 O           4.4132   -5.1146   -0.1790 O.3     1  LIG1       -0.4920
     94 C           5.0708   -3.8447   -0.1847 C.3     2  LIG2       -0.0681
     95 H           4.3390   -3.0642   -0.1974 H       1  LIG1        0.0227
     96 H           5.6756   -3.7523    0.6932 H       1  LIG1        0.0227
     97 H           5.6898   -3.7675   -1.0540 H       1  LIG1        0.0227
     98 O           8.2061   -8.8701   -0.1194 O.3     1  LIG1       -0.5052
     99 H           9.0518   -8.4156   -0.1161 H       1  LIG1        0.2922
@<TRIPOS>BOND
     1    83    81    1
     2    97    94    1
     3    34    32    1
     4    10     8    1
     5    14    12    1
     6    58    55    1
     7    46    44    1
     8    45    44    1
     9    95    94    1
    10    94    96    1
    11    93    85    1
    12    93    84    1
    13    90    85   ar
    14    90    89   ar
    15    92    89    1
    16    81    76    1
    17    81    82    1
    18    85    86   ar
    19    89    88   ar
    20    77    75    1
    21    76    75   ar
    22    76    73   ar
    23    68    67    1
    24    86    73    1
    25    86    87   ar
    26    75    72   ar
    27    88    87   ar
    28    88    98    1
    29    67    66    3
    30    73    71   ar
    31    87    91    1
    32    98    99    1
    33    66    59    1
    34    64    59   ar
    35    64    63   ar
    36    72    63    1
    37    72    70   ar
    38    56    55    1
    39    71    70   ar
    40    71    74    1
    41    59    60   ar
    42    63    62   ar
    43    55    54    1
    44    55    57    1
    45    70    78    1
    46    54    49    1
    47    60    50    1
    48    60    61   ar
    49    62    61   ar
    50    62    69    1
    51    49    50   ar
    52    49    48   ar
    53    50    51   ar
    54    78    79    3
    55    61    65    1
    56    48    52    1
    57    48    47   ar
    58    52    53    1
    59    51    47   ar
    60    24    23    1
    61    79    80    1
    62    23    16    1
    63    47    40    1
    64    41    40   ar
    65    41    37   ar
    66    40    39   ar
    67    21    16   ar
    68    21    20   ar
    69    16    17   ar
    70    37    29    1
    71    37    38   ar
    72    29    28   ar
    73    29    30   ar
    74    36    28    1
    75    28    27   ar
    76    27    32    1
    77    27    26   ar
    78    32    35    1
    79    32    33    1
    80    31    30    1
    81    30    26   ar
    82    26    20    1
    83    39    44    1
    84    39    38   ar
    85    20    19   ar
    86     2     8    1
    87     2     1   ar
    88     2     3   ar
    89     6     5    1
    90     8    11    1
    91     8     9    1
    92     4    17    1
    93     4     5   ar
    94     4     3   ar
    95    17    18   ar
    96     5     1   ar
    97     1     7    1
    98     3    12    1
    99    12    15    1
   100    12    13    1
   101    38    42    1
   102    19    18   ar
   103    19    25    1
   104    18    22    1
   105    42    43    1
