@<TRIPOS>MOLECULE
mol_data/noopt/geoms/mol2/13ii13ii.out
 30 31 0 0 0
SMALL
GASTEIGER

@<TRIPOS>ATOM
      1 C           1.1215   -0.3259    0.0002 C.ar    1  LIG1        0.0054
      2 C           0.7176    0.9721   -0.0005 C.ar    1  LIG1       -0.0296
      3 C          -0.7144    0.9744    0.0003 C.ar    1  LIG1       -0.0209
      4 C          -1.1226   -0.3223   -0.0003 C.ar    1  LIG1        0.0663
      5 N          -0.0018   -1.1217    0.0001 N.ar    1  LIG1       -0.3590
      6 H          -0.0034   -2.1157   -0.0003 H       1  LIG1        0.1654
      7 H           2.3167   -0.8373    0.0007 H       1  LIG1        0.0810
      8 C           1.4920    2.0167   -0.0003 C.3     1  LIG1       -0.0380
      9 H           1.0026    2.8234    0.5042 H       1  LIG1        0.0278
     10 H           1.7045    2.3034   -1.0091 H       1  LIG1        0.0278
     11 H           2.4062    1.7828    0.5041 H       1  LIG1        0.0278
     12 C          -1.4855    2.0214    0.0010 C.3     1  LIG1       -0.0374
     13 H          -2.4003    1.7904    0.5056 H       1  LIG1        0.0278
     14 H          -1.6974    2.3090   -1.0077 H       1  LIG1        0.0278
     15 H          -0.9933    2.8265    0.5056 H       1  LIG1        0.0278
     16 C          -2.3194   -0.8299   -0.0001 C.ar    1  LIG1        0.0663
     17 C          -3.5353   -0.2219   -0.0003 C.ar    1  LIG1       -0.0209
     18 C          -4.5290   -1.2530    0.0012 C.ar    1  LIG1       -0.0296
     19 C          -3.8767   -2.4457    0.0005 C.ar    1  LIG1        0.0054
     20 N          -2.5238   -2.1913    0.0002 N.ar    1  LIG1       -0.3590
     21 H          -1.8081   -2.8811   -0.0004 H       1  LIG1        0.1654
     22 H          -4.3398   -3.6604    0.0012 H       1  LIG1        0.0810
     23 C          -3.7520    1.0602   -0.0003 C.3     1  LIG1       -0.0374
     24 H          -4.6729    1.2662    0.5041 H       1  LIG1        0.0278
     25 H          -3.8116    1.4119   -1.0091 H       1  LIG1        0.0278
     26 H          -2.9500    1.5575    0.5041 H       1  LIG1        0.0278
     27 C          -5.8182   -1.0837    0.0025 C.3     1  LIG1       -0.0380
     28 H          -6.2852   -1.9035    0.5073 H       1  LIG1        0.0278
     29 H          -6.1729   -1.0372   -1.0060 H       1  LIG1        0.0278
     30 H          -6.0576   -0.1710    0.5072 H       1  LIG1        0.0278
@<TRIPOS>BOND
     1    25    23    1
     2    10     8    1
     3    14    12    1
     4    29    27    1
     5     2     8    1
     6     2     1   ar
     7     2     3   ar
     8    21    20    1
     9    17    23    1
    10    17    16   ar
    11    17    18   ar
    12     4    16    1
    13     4     5   ar
    14     4     3   ar
    15     6     5    1
    16     8    11    1
    17     8     9    1
    18    23    26    1
    19    23    24    1
    20    16    20   ar
    21     5     1   ar
    22    20    19   ar
    23     1     7    1
    24     3    12    1
    25    19    18   ar
    26    19    22    1
    27    12    15    1
    28    12    13    1
    29    18    27    1
    30    27    30    1
    31    27    28    1
