@<TRIPOS>MOLECULE
mol_data/noopt/geoms/mol2/13ii13ii13ii.out
 44 46 0 0 0
SMALL
GASTEIGER

@<TRIPOS>ATOM
      1 C           1.1215   -0.3259    0.0002 C.ar    1  LIG1        0.0054
      2 C           0.7176    0.9721   -0.0005 C.ar    1  LIG1       -0.0296
      3 C          -0.7144    0.9744    0.0003 C.ar    1  LIG1       -0.0209
      4 C          -1.1226   -0.3223   -0.0003 C.ar    1  LIG1        0.0663
      5 N          -0.0018   -1.1217    0.0001 N.ar    1  LIG1       -0.3590
      6 H          -0.0034   -2.1157   -0.0003 H       1  LIG1        0.1654
      7 H           2.3167   -0.8373    0.0007 H       1  LIG1        0.0810
      8 C           1.4920    2.0167   -0.0003 C.3     1  LIG1       -0.0380
      9 H           1.0026    2.8234    0.5042 H       1  LIG1        0.0278
     10 H           1.7045    2.3034   -1.0091 H       1  LIG1        0.0278
     11 H           2.4062    1.7828    0.5041 H       1  LIG1        0.0278
     12 C          -1.4855    2.0214    0.0010 C.3     1  LIG1       -0.0374
     13 H          -2.4003    1.7904    0.5056 H       1  LIG1        0.0278
     14 H          -1.6974    2.3090   -1.0077 H       1  LIG1        0.0278
     15 H          -0.9933    2.8265    0.5056 H       1  LIG1        0.0278
     16 C          -2.3194   -0.8299   -0.0001 C.ar    1  LIG1        0.0668
     17 C          -3.5353   -0.2219   -0.0003 C.ar    1  LIG1       -0.0202
     18 C          -4.5290   -1.2530    0.0012 C.ar    1  LIG1       -0.0202
     19 C          -3.8767   -2.4457    0.0005 C.ar    1  LIG1        0.0668
     20 N          -2.5238   -2.1913    0.0002 N.ar    1  LIG1       -0.3514
     21 H          -1.8081   -2.8811   -0.0004 H       1  LIG1        0.1660
     22 C          -3.7520    1.0602   -0.0003 C.3     1  LIG1       -0.0374
     23 H          -4.6729    1.2662    0.5041 H       1  LIG1        0.0278
     24 H          -3.8116    1.4119   -1.0091 H       1  LIG1        0.0278
     25 H          -2.9500    1.5575    0.5041 H       1  LIG1        0.0278
     26 C          -5.8182   -1.0837    0.0025 C.3     1  LIG1       -0.0374
     27 H          -6.2852   -1.9035    0.5073 H       1  LIG1        0.0278
     28 H          -6.1729   -1.0372   -1.0060 H       1  LIG1        0.0278
     29 H          -6.0576   -0.1710    0.5072 H       1  LIG1        0.0278
     30 C          -4.3398   -3.6604    0.0012 C.ar    1  LIG1        0.0663
     31 C          -5.6206   -4.1160    0.0013 C.ar    1  LIG1       -0.0209
     32 C          -5.5655   -5.5470    0.0033 C.ar    1  LIG1       -0.0296
     33 C          -4.2535   -5.9029    0.0026 C.ar    1  LIG1        0.0054
     34 N          -3.4996   -4.7510    0.0018 N.ar    1  LIG1       -0.3590
     35 H          -2.5064   -4.7127    0.0010 H       1  LIG1        0.1654
     36 H          -3.6983   -7.0784    0.0036 H       1  LIG1        0.0810
     37 C          -6.6953   -3.3841    0.0012 C.3     1  LIG1       -0.0374
     38 H          -7.4819   -3.9054    0.5056 H       1  LIG1        0.0278
     39 H          -6.9901   -3.1834   -1.0076 H       1  LIG1        0.0278
     40 H          -6.4984   -2.4612    0.5056 H       1  LIG1        0.0278
     41 C          -6.5808   -6.3594    0.0050 C.3     1  LIG1       -0.0380
     42 H          -6.3129   -7.2640    0.5099 H       1  LIG1        0.0278
     43 H          -6.8603   -6.5831   -1.0034 H       1  LIG1        0.0278
     44 H          -7.4046   -5.8996    0.5099 H       1  LIG1        0.0278
@<TRIPOS>BOND
     1    24    22    1
     2    10     8    1
     3    14    12    1
     4    39    37    1
     5    28    26    1
     6    43    41    1
     7     2     8    1
     8     2     1   ar
     9     2     3   ar
    10    21    20    1
    11    17    22    1
    12    17    16   ar
    13    17    18   ar
    14     8    11    1
    15     8     9    1
    16     6     5    1
    17     4    16    1
    18     4     5   ar
    19     4     3   ar
    20    22    25    1
    21    22    23    1
    22    16    20   ar
    23     5     1   ar
    24    20    19   ar
    25     1     7    1
    26     3    12    1
    27    19    18   ar
    28    19    30    1
    29    35    34    1
    30    12    15    1
    31    12    13    1
    32    18    26    1
    33    30    31   ar
    34    30    34   ar
    35    37    31    1
    36    37    40    1
    37    37    38    1
    38    31    32   ar
    39    34    33   ar
    40    26    29    1
    41    26    27    1
    42    33    32   ar
    43    33    36    1
    44    32    41    1
    45    41    44    1
    46    41    42    1
