@<TRIPOS>MOLECULE
mol_data/noopt/geoms/mol2/13ii13ii-.out
 30 31 0 0 0
SMALL
GASTEIGER

@<TRIPOS>ATOM
      1 C           1.1215   -0.3259    0.0002 C.ar    1  LIG1        0.0054
      2 C           0.7176    0.9721   -0.0005 C.ar    1  LIG1       -0.0296
      3 C          -0.7144    0.9744    0.0003 C.ar    1  LIG1       -0.0209
      4 C          -1.1226   -0.3223   -0.0003 C.ar    1  LIG1        0.0663
      5 N          -0.0018   -1.1217    0.0001 N.ar    1  LIG1       -0.3590
      6 H          -0.0034   -2.1157   -0.0003 H       1  LIG1        0.1654
      7 H           2.3167   -0.8373    0.0007 H       1  LIG1        0.0810
      8 C           1.4920    2.0167   -0.0003 C.3     1  LIG1       -0.0380
      9 H           1.0026    2.8234    0.5042 H       1  LIG1        0.0278
     10 H           1.7045    2.3034   -1.0091 H       1  LIG1        0.0278
     11 H           2.4062    1.7828    0.5041 H       1  LIG1        0.0278
     12 C          -1.4855    2.0214    0.0010 C.3     1  LIG1       -0.0374
     13 H          -2.4003    1.7904    0.5056 H       1  LIG1        0.0278
     14 H          -1.6974    2.3090   -1.0077 H       1  LIG1        0.0278
     15 H          -0.9933    2.8265    0.5056 H       1  LIG1        0.0278
     16 C          -2.3194   -0.8299   -0.0001 C.ar    1  LIG1        0.0663
     17 C          -2.7274   -2.1266   -0.0005 C.ar    1  LIG1       -0.0209
     18 C          -4.1594   -2.1244    0.0011 C.ar    1  LIG1       -0.0296
     19 C          -4.5635   -0.8264    0.0006 C.ar    1  LIG1        0.0054
     20 N          -3.4402   -0.0305    0.0003 N.ar    1  LIG1       -0.3590
     21 H          -3.4386    0.9635   -0.0001 H       1  LIG1        0.1654
     22 H          -5.7587   -0.3150    0.0014 H       1  LIG1        0.0810
     23 C          -1.9564   -3.1736   -0.0006 C.3     1  LIG1       -0.0374
     24 H          -1.0413   -2.9428    0.5038 H       1  LIG1        0.0278
     25 H          -1.7448   -3.4607   -1.0095 H       1  LIG1        0.0278
     26 H          -2.4483   -3.9789    0.5037 H       1  LIG1        0.0278
     27 C          -4.9338   -3.1690    0.0023 C.3     1  LIG1       -0.0380
     28 H          -4.4441   -3.9754    0.5071 H       1  LIG1        0.0278
     29 H          -5.1467   -3.4563   -1.0062 H       1  LIG1        0.0278
     30 H          -5.8478   -2.9348    0.5070 H       1  LIG1        0.0278
@<TRIPOS>BOND
     1    25    23    1
     2    10     8    1
     3    14    12    1
     4    29    27    1
     5    23    17    1
     6    23    26    1
     7    23    24    1
     8     2     8    1
     9     2     1   ar
    10     2     3   ar
    11    17    16   ar
    12    17    18   ar
    13     4    16    1
    14     4     5   ar
    15     4     3   ar
    16     6     5    1
    17     8    11    1
    18     8     9    1
    19    21    20    1
    20    16    20   ar
    21     5     1   ar
    22     1     7    1
    23     3    12    1
    24    20    19   ar
    25    19    18   ar
    26    19    22    1
    27    12    15    1
    28    12    13    1
    29    18    27    1
    30    27    30    1
    31    27    28    1
