@<TRIPOS>MOLECULE
mol_data/noopt/geoms/mol2/13ii13ii-4ii13ii.out
 60 63 0 0 0
SMALL
GASTEIGER

@<TRIPOS>ATOM
      1 C           1.1215   -0.3259    0.0002 C.ar    1  LIG1        0.0054
      2 C           0.7176    0.9721   -0.0005 C.ar    1  LIG1       -0.0296
      3 C          -0.7144    0.9744    0.0003 C.ar    1  LIG1       -0.0209
      4 C          -1.1226   -0.3223   -0.0003 C.ar    1  LIG1        0.0663
      5 N          -0.0018   -1.1217    0.0001 N.ar    1  LIG1       -0.3590
      6 H          -0.0034   -2.1157   -0.0003 H       1  LIG1        0.1654
      7 H           2.3167   -0.8373    0.0007 H       1  LIG1        0.0810
      8 C           1.4920    2.0167   -0.0003 C.3     1  LIG1       -0.0380
      9 H           1.0026    2.8234    0.5042 H       1  LIG1        0.0278
     10 H           1.7045    2.3034   -1.0091 H       1  LIG1        0.0278
     11 H           2.4062    1.7828    0.5041 H       1  LIG1        0.0278
     12 C          -1.4855    2.0214    0.0010 C.3     1  LIG1       -0.0374
     13 H          -2.4003    1.7904    0.5056 H       1  LIG1        0.0278
     14 H          -1.6974    2.3090   -1.0077 H       1  LIG1        0.0278
     15 H          -0.9933    2.8265    0.5056 H       1  LIG1        0.0278
     16 C          -2.3194   -0.8299   -0.0001 C.ar    1  LIG1        0.0668
     17 C          -2.7274   -2.1266   -0.0005 C.ar    1  LIG1       -0.0203
     18 C          -4.1594   -2.1244    0.0011 C.ar    1  LIG1       -0.0216
     19 C          -4.5635   -0.8264    0.0006 C.ar    1  LIG1        0.0504
     20 N          -3.4402   -0.0305    0.0003 N.ar    1  LIG1       -0.3526
     21 H          -3.4386    0.9635   -0.0001 H       1  LIG1        0.1660
     22 C          -1.9564   -3.1736   -0.0006 C.3     1  LIG1       -0.0374
     23 H          -1.0413   -2.9428    0.5038 H       1  LIG1        0.0278
     24 H          -1.7448   -3.4607   -1.0095 H       1  LIG1        0.0278
     25 H          -2.4483   -3.9789    0.5037 H       1  LIG1        0.0278
     26 C          -4.9338   -3.1690    0.0023 C.3     1  LIG1       -0.0374
     27 H          -4.4441   -3.9754    0.5071 H       1  LIG1        0.0278
     28 H          -5.1467   -3.4563   -1.0062 H       1  LIG1        0.0278
     29 H          -5.8478   -2.9348    0.5070 H       1  LIG1        0.0278
     30 C          -5.9236    1.0852    0.0026 C.ar    1  LIG1       -0.0407
     31 C          -7.2385    1.5895    0.0050 C.ar    1  LIG1       -0.0488
     32 C          -5.7587   -0.3150    0.0014 C.ar    1  LIG1        0.0018
     33 C          -8.3419    0.7391    0.0056 C.ar    1  LIG1        0.0017
     34 H          -7.3885    2.6668    0.0062 H       1  LIG1        0.0627
     35 C          -6.8598   -1.1644    0.0020 C.ar    1  LIG1       -0.0488
     36 C          -8.1582   -0.6442    0.0040 C.ar    1  LIG1       -0.0407
     37 H          -6.7065   -2.2406    0.0011 H       1  LIG1        0.0627
     38 C          -4.9340    1.9287    0.0020 C.3     1  LIG1       -0.0391
     39 H          -5.2291    2.8252    0.5062 H       1  LIG1        0.0278
     40 H          -4.6630    2.1598   -1.0071 H       1  LIG1        0.0278
     41 H          -4.0956    1.4954    0.5061 H       1  LIG1        0.0278
     42 C          -9.1840   -1.4433    0.0046 C.3     1  LIG1       -0.0391
     43 H          -8.9283   -2.3515    0.5093 H       1  LIG1        0.0278
     44 H          -9.4658   -1.6628   -1.0040 H       1  LIG1        0.0278
     45 H         -10.0021   -0.9730    0.5092 H       1  LIG1        0.0278
     46 C          -9.5420    1.2389    0.0077 C.ar    1  LIG1        0.0499
     47 C          -9.9585    2.5329    0.0088 C.ar    1  LIG1       -0.0223
     48 C         -11.3904    2.5213    0.0122 C.ar    1  LIG1       -0.0297
     49 C         -11.7860    1.2207    0.0113 C.ar    1  LIG1        0.0053
     50 N         -10.6575    0.4322    0.0090 N.ar    1  LIG1       -0.3602
     51 H         -10.6495   -0.5617    0.0079 H       1  LIG1        0.1654
     52 H         -12.9778    0.7015    0.0134 H       1  LIG1        0.0810
     53 C          -9.1942    3.5849    0.0084 C.3     1  LIG1       -0.0375
     54 H          -9.6913    4.3871    0.5127 H       1  LIG1        0.0278
     55 H          -8.9848    3.8733   -1.0006 H       1  LIG1        0.0278
     56 H          -8.2777    3.3601    0.5126 H       1  LIG1        0.0278
     57 C         -12.1716    3.5608    0.0152 C.3     1  LIG1       -0.0380
     58 H         -13.0836    3.3202    0.5204 H       1  LIG1        0.0278
     59 H         -12.3873    3.8478   -0.9929 H       1  LIG1        0.0278
     60 H         -11.6867    4.3699    0.5203 H       1  LIG1        0.0278
@<TRIPOS>BOND
     1    24    22    1
     2    10     8    1
     3    14    12    1
     4    40    38    1
     5    28    26    1
     6    44    42    1
     7    55    53    1
     8    59    57    1
     9    22    17    1
    10    22    25    1
    11    22    23    1
    12     2     8    1
    13     2     1   ar
    14     2     3   ar
    15    17    16   ar
    16    17    18   ar
    17     4    16    1
    18     4     5   ar
    19     4     3   ar
    20     6     5    1
    21     8    11    1
    22     8     9    1
    23    21    20    1
    24    16    20   ar
    25     5     1   ar
    26     1     7    1
    27     3    12    1
    28    20    19   ar
    29    19    18   ar
    30    19    32    1
    31    12    15    1
    32    12    13    1
    33    18    26    1
    34    37    35    1
    35    32    35   ar
    36    32    30   ar
    37    38    30    1
    38    38    41    1
    39    38    39    1
    40    35    36   ar
    41    26    29    1
    42    26    27    1
    43    30    31   ar
    44    36    42    1
    45    36    33   ar
    46    42    45    1
    47    42    43    1
    48    31    33   ar
    49    31    34    1
    50    33    46    1
    51    46    47   ar
    52    46    50   ar
    53    51    50    1
    54    53    47    1
    55    53    56    1
    56    53    54    1
    57    47    48   ar
    58    50    49   ar
    59    49    48   ar
    60    49    52    1
    61    48    57    1
    62    57    60    1
    63    57    58    1
