@<TRIPOS>MOLECULE
mol_data/noopt/geoms/mol2/13ii13ii-13ii.out
 44 46 0 0 0
SMALL
GASTEIGER

@<TRIPOS>ATOM
      1 C           1.1215   -0.3259    0.0002 C.ar    1  LIG1        0.0054
      2 C           0.7176    0.9721   -0.0005 C.ar    1  LIG1       -0.0296
      3 C          -0.7144    0.9744    0.0003 C.ar    1  LIG1       -0.0209
      4 C          -1.1226   -0.3223   -0.0003 C.ar    1  LIG1        0.0663
      5 N          -0.0018   -1.1217    0.0001 N.ar    1  LIG1       -0.3590
      6 H          -0.0034   -2.1157   -0.0003 H       1  LIG1        0.1654
      7 H           2.3167   -0.8373    0.0007 H       1  LIG1        0.0810
      8 C           1.4920    2.0167   -0.0003 C.3     1  LIG1       -0.0380
      9 H           1.0026    2.8234    0.5042 H       1  LIG1        0.0278
     10 H           1.7045    2.3034   -1.0091 H       1  LIG1        0.0278
     11 H           2.4062    1.7828    0.5041 H       1  LIG1        0.0278
     12 C          -1.4855    2.0214    0.0010 C.3     1  LIG1       -0.0374
     13 H          -2.4003    1.7904    0.5056 H       1  LIG1        0.0278
     14 H          -1.6974    2.3090   -1.0077 H       1  LIG1        0.0278
     15 H          -0.9933    2.8265    0.5056 H       1  LIG1        0.0278
     16 C          -2.3194   -0.8299   -0.0001 C.ar    1  LIG1        0.0668
     17 C          -2.7274   -2.1266   -0.0005 C.ar    1  LIG1       -0.0202
     18 C          -4.1594   -2.1244    0.0011 C.ar    1  LIG1       -0.0202
     19 C          -4.5635   -0.8264    0.0006 C.ar    1  LIG1        0.0668
     20 N          -3.4402   -0.0305    0.0003 N.ar    1  LIG1       -0.3514
     21 H          -3.4386    0.9635   -0.0001 H       1  LIG1        0.1660
     22 C          -1.9564   -3.1736   -0.0006 C.3     1  LIG1       -0.0374
     23 H          -1.0413   -2.9428    0.5038 H       1  LIG1        0.0278
     24 H          -1.7448   -3.4607   -1.0095 H       1  LIG1        0.0278
     25 H          -2.4483   -3.9789    0.5037 H       1  LIG1        0.0278
     26 C          -4.9338   -3.1690    0.0023 C.3     1  LIG1       -0.0374
     27 H          -4.4441   -3.9754    0.5071 H       1  LIG1        0.0278
     28 H          -5.1467   -3.4563   -1.0062 H       1  LIG1        0.0278
     29 H          -5.8478   -2.9348    0.5070 H       1  LIG1        0.0278
     30 C          -5.7587   -0.3150    0.0014 C.ar    1  LIG1        0.0663
     31 C          -6.1626    0.9830    0.0016 C.ar    1  LIG1       -0.0209
     32 C          -7.5946    0.9853    0.0038 C.ar    1  LIG1       -0.0296
     33 C          -8.0028   -0.3114    0.0030 C.ar    1  LIG1        0.0054
     34 N          -6.8820   -1.1108    0.0021 N.ar    1  LIG1       -0.3590
     35 H          -6.8836   -2.1048    0.0013 H       1  LIG1        0.1654
     36 H          -9.1996   -0.8190    0.0041 H       1  LIG1        0.0810
     37 C          -5.3882    2.0276    0.0015 C.3     1  LIG1       -0.0374
     38 H          -5.8776    2.8344    0.5059 H       1  LIG1        0.0278
     39 H          -5.1759    2.3141   -1.0073 H       1  LIG1        0.0278
     40 H          -4.4739    1.7938    0.5059 H       1  LIG1        0.0278
     41 C          -8.3657    2.0323    0.0056 C.3     1  LIG1       -0.0380
     42 H          -9.2802    1.8009    0.5105 H       1  LIG1        0.0278
     43 H          -8.5781    2.3207   -1.0028 H       1  LIG1        0.0278
     44 H          -7.8732    2.8370    0.5105 H       1  LIG1        0.0278
@<TRIPOS>BOND
     1    24    22    1
     2    10     8    1
     3    14    12    1
     4    39    37    1
     5    28    26    1
     6    43    41    1
     7    22    17    1
     8    22    25    1
     9    22    23    1
    10     2     8    1
    11     2     1   ar
    12     2     3   ar
    13    17    16   ar
    14    17    18   ar
    15     6     5    1
    16     4    16    1
    17     4     5   ar
    18     4     3   ar
    19     8    11    1
    20     8     9    1
    21    21    20    1
    22    16    20   ar
    23     5     1   ar
    24     1     7    1
    25     3    12    1
    26    20    19   ar
    27    19    18   ar
    28    19    30    1
    29    12    15    1
    30    12    13    1
    31    18    26    1
    32    35    34    1
    33    30    31   ar
    34    30    34   ar
    35    37    31    1
    36    37    40    1
    37    37    38    1
    38    31    32   ar
    39    34    33   ar
    40    26    29    1
    41    26    27    1
    42    33    32   ar
    43    33    36    1
    44    32    41    1
    45    41    44    1
    46    41    42    1
