@<TRIPOS>MOLECULE
mol_data/noopt/geoms/mol2/13ii6al(160)12ea(170)4ae(90).out
 50 52 0 0 0
SMALL
GASTEIGER

@<TRIPOS>ATOM
      1 C           1.1215   -0.3259    0.0002 C.ar    1  LIG1        0.0053
      2 C           0.7176    0.9721   -0.0005 C.ar    1  LIG1       -0.0297
      3 C          -0.7144    0.9744    0.0003 C.ar    1  LIG1       -0.0223
      4 C          -1.1226   -0.3223   -0.0003 C.ar    1  LIG1        0.0512
      5 N          -0.0018   -1.1217    0.0001 N.ar    1  LIG1       -0.3601
      6 H          -0.0034   -2.1157   -0.0003 H       1  LIG1        0.1654
      7 H           2.3167   -0.8373    0.0007 H       1  LIG1        0.0810
      8 C           1.4920    2.0167   -0.0003 C.3     1  LIG1       -0.0380
      9 H           1.0026    2.8234    0.5042 H       1  LIG1        0.0278
     10 H           1.7045    2.3034   -1.0091 H       1  LIG1        0.0278
     11 H           2.4062    1.7828    0.5041 H       1  LIG1        0.0278
     12 C          -1.4855    2.0214    0.0010 C.3     1  LIG1       -0.0375
     13 H          -2.4003    1.7904    0.5056 H       1  LIG1        0.0278
     14 H          -1.6974    2.3090   -1.0077 H       1  LIG1        0.0278
     15 H          -0.9933    2.8265    0.5056 H       1  LIG1        0.0278
     16 C          -3.4196   -0.0574   -0.4150 C.ar    1  LIG1        0.0377
     17 C          -2.3194   -0.8299   -0.0001 C.ar    1  LIG1        0.0203
     18 C          -2.5448   -2.1457    0.4083 C.ar    1  LIG1       -0.0021
     19 C          -3.8497   -2.6411    0.3890 C.ar    1  LIG1        0.2084
     20 C          -4.8845   -1.7910   -0.0424 C.ar    1  LIG1        0.1530
     21 N          -4.6849   -0.5192   -0.4400 N.ar    1  LIG1       -0.2474
     22 H          -1.7101   -2.7793    0.7401 H       1  LIG1        0.0663
     23 H          -3.2602    1.1727   -0.8042 H       1  LIG1        0.0836
     24 O          -4.1117   -3.8593    0.7598 O.3     1  LIG1       -0.2855
     25 C          -5.5257   -4.0232    0.8958 C.3     1  LIG1       -0.0312
     26 H          -5.7409   -5.0260    1.2008 H       1  LIG1        0.0268
     27 H          -5.8949   -3.3396    1.6317 H       1  LIG1        0.0309
     28 H          -5.9996   -3.8266   -0.0431 H       1  LIG1        0.0306
     29 C          -6.1158   -2.2064   -0.0782 C.ar    1  LIG1        0.1653
     30 C          -6.7454   -3.4279    0.0424 C.ar    1  LIG1        0.0338
     31 C          -8.1648   -3.1786   -0.0990 C.ar    1  LIG1       -0.0073
     32 C          -8.3085   -1.8207   -0.2967 C.ar    1  LIG1        0.1364
     33 O          -7.0591   -1.1995   -0.2878 O.2     1  LIG1       -0.4525
     34 C          -6.1970   -4.5893    0.2436 C.3     1  LIG1       -0.0346
     35 C          -5.6904   -5.6624    0.4294 C.3     1  LIG1       -0.0494
     36 H          -5.2390   -6.6183    0.5950 H       1  LIG1        0.0268
     37 H          -9.1012   -4.0789   -0.0458 H       1  LIG1        0.0662
     38 C          -9.9876   -0.4663    0.6254 C.ar    1  LIG1       -0.0510
     39 C         -11.0663    0.4024    0.3701 C.ar    1  LIG1       -0.0599
     40 C          -9.3095   -1.0127   -0.4834 C.ar    1  LIG1        0.0185
     41 C         -11.4540    0.7151   -0.9308 C.ar    1  LIG1       -0.0463
     42 H         -11.6034    0.8349    1.2112 H       1  LIG1        0.0618
     43 C          -9.6962   -0.7008   -1.7824 C.ar    1  LIG1       -0.0357
     44 C         -10.7701    0.1646   -2.0155 C.ar    1  LIG1        0.0254
     45 H          -9.1575   -1.1350   -2.6208 H       1  LIG1        0.0637
     46 H         -12.4544    1.5210   -1.1301 H       1  LIG1        0.0630
     47 H          -9.6726   -0.7201    1.8608 H       1  LIG1        0.0625
     48 C         -11.1271    0.4524   -3.2319 C.1     1  LIG1       -0.0696
     49 C         -11.4570    0.7183   -4.3559 C.1     1  LIG1       -0.1139
     50 H         -11.7509    0.9552   -5.3571 H       1  LIG1        0.1232
@<TRIPOS>BOND
     1    50    49    1
     2    49    48    3
     3    48    44    1
     4    45    43    1
     5    44    43   ar
     6    44    41   ar
     7    43    40   ar
     8    46    41    1
     9    10     8    1
    10    14    12    1
    11    41    39   ar
    12    23    16    1
    13    40    32    1
    14    40    38   ar
    15    21    16   ar
    16    21    20   ar
    17    16    17   ar
    18    32    33   ar
    19    32    31   ar
    20    33    29   ar
    21    31    37    1
    22    31    30   ar
    23    29    20    1
    24    29    30   ar
    25    28    34    1
    26    20    19   ar
    27     2     8    1
    28     2     1   ar
    29     2     3   ar
    30     8    11    1
    31     8     9    1
    32     6     5    1
    33     4    17    1
    34     4     5   ar
    35     4     3   ar
    36    17    18   ar
    37     5     1   ar
    38     1     7    1
    39     3    12    1
    40    12    15    1
    41    12    13    1
    42    34    35    1
    43    34    25    1
    44    39    38   ar
    45    39    42    1
    46    19    18   ar
    47    19    24    1
    48    18    22    1
    49    35    36    1
    50    35    26    1
    51    38    47    1
    52    25    27    1
