@<TRIPOS>MOLECULE
mol_data/noopt/geoms/mol2/13il13il13il13il-.out
 62 65 0 0 0
SMALL
GASTEIGER

@<TRIPOS>ATOM
      1 C           1.1215   -0.3259    0.0002 C.ar    1  LIG1        0.0087
      2 C           0.7176    0.9721   -0.0005 C.ar    1  LIG1        0.0092
      3 C          -0.7144    0.9744    0.0003 C.ar    1  LIG1        0.1495
      4 C          -1.1226   -0.3223   -0.0003 C.ar    1  LIG1        0.1057
      5 N          -0.0018   -1.1217    0.0001 N.ar    1  LIG1       -0.3563
      6 H          -0.0034   -2.1157   -0.0003 H       1  LIG1        0.1655
      7 H           2.3167   -0.8373    0.0007 H       1  LIG1        0.0811
      8 C           1.4920    2.0167   -0.0003 C.3     1  LIG1       -0.0348
      9 H           1.0026    2.8234    0.5042 H       1  LIG1        0.0279
     10 H           1.7045    2.3034   -1.0091 H       1  LIG1        0.0279
     11 H           2.4062    1.7828    0.5041 H       1  LIG1        0.0279
     12 O          -1.4853    2.0212    0.0010 O.3     1  LIG1       -0.4927
     13 C          -0.6829    3.2049    0.0012 C.3     1  LIG1        0.0789
     14 H          -1.3178    4.0662    0.0016 H       1  LIG1        0.0660
     15 H          -0.0650    3.2168    0.8747 H       1  LIG1        0.0660
     16 H          -0.0654    3.2174   -0.8726 H       1  LIG1        0.0660
     17 C          -2.3194   -0.8299   -0.0001 C.ar    1  LIG1        0.0735
     18 C          -3.5353   -0.2219   -0.0003 C.ar    1  LIG1        0.0187
     19 C          -4.5290   -1.2530    0.0012 C.ar    1  LIG1        0.1502
     20 C          -3.8767   -2.4457    0.0005 C.ar    1  LIG1        0.1062
     21 N          -2.5238   -2.1913    0.0002 N.ar    1  LIG1       -0.3486
     22 H          -1.8081   -2.8811   -0.0004 H       1  LIG1        0.1661
     23 C          -3.7520    1.0602   -0.0003 C.3     1  LIG1       -0.0341
     24 H          -4.6729    1.2662    0.5041 H       1  LIG1        0.0279
     25 H          -3.8116    1.4119   -1.0091 H       1  LIG1        0.0279
     26 H          -2.9500    1.5575    0.5041 H       1  LIG1        0.0279
     27 O          -5.8180   -1.0837    0.0025 O.3     1  LIG1       -0.4927
     28 C          -6.1157    0.3150    0.0029 C.3     1  LIG1        0.0789
     29 H          -7.1766    0.4539    0.0038 H       1  LIG1        0.0660
     30 H          -5.6958    0.7688    0.8763 H       1  LIG1        0.0660
     31 H          -5.6973    0.7690   -0.8710 H       1  LIG1        0.0660
     32 C          -4.3398   -3.6604    0.0012 C.ar    1  LIG1        0.0735
     33 C          -5.6206   -4.1160    0.0013 C.ar    1  LIG1        0.0187
     34 C          -5.5655   -5.5470    0.0033 C.ar    1  LIG1        0.1502
     35 C          -4.2535   -5.9029    0.0026 C.ar    1  LIG1        0.1062
     36 N          -3.4996   -4.7510    0.0018 N.ar    1  LIG1       -0.3486
     37 H          -2.5064   -4.7127    0.0010 H       1  LIG1        0.1661
     38 C          -6.6953   -3.3841    0.0012 C.3     1  LIG1       -0.0341
     39 H          -7.4819   -3.9054    0.5056 H       1  LIG1        0.0279
     40 H          -6.9901   -3.1834   -1.0076 H       1  LIG1        0.0279
     41 H          -6.4984   -2.4612    0.5056 H       1  LIG1        0.0279
     42 O          -6.5806   -6.3592    0.0050 O.3     1  LIG1       -0.4927
     43 C          -7.7954   -5.6049    0.0056 C.3     1  LIG1        0.0789
     44 H          -8.6306   -6.2737    0.0068 H       1  LIG1        0.0660
     45 H          -7.8316   -4.9876    0.8789 H       1  LIG1        0.0660
     46 H          -7.8332   -4.9888   -0.8684 H       1  LIG1        0.0660
     47 C          -3.6983   -7.0784    0.0036 C.ar    1  LIG1        0.0730
     48 C          -2.3863   -7.4341    0.0038 C.ar    1  LIG1        0.0180
     49 C          -2.3311   -8.8651    0.0062 C.ar    1  LIG1        0.1408
     50 C          -3.6119   -9.3208    0.0056 C.ar    1  LIG1        0.0447
     51 N          -4.4521   -8.2303    0.0045 N.ar    1  LIG1       -0.3561
     52 H          -5.4454   -8.2686    0.0038 H       1  LIG1        0.1655
     53 H          -4.0750  -10.5356    0.0070 H       1  LIG1        0.0844
     54 C          -1.3710   -6.6217    0.0035 C.3     1  LIG1       -0.0342
     55 H          -1.6383   -5.7166    0.5078 H       1  LIG1        0.0279
     56 H          -1.0927   -6.3989   -1.0055 H       1  LIG1        0.0279
     57 H          -0.5466   -7.0810    0.5077 H       1  LIG1        0.0279
     58 O          -1.2566   -9.5968    0.0081 O.3     1  LIG1       -0.4933
     59 C          -1.6208  -10.9796    0.0088 C.3     1  LIG1        0.0789
     60 H          -0.7362  -11.5815    0.0102 H       1  LIG1        0.0660
     61 H          -2.2004  -11.1954    0.8820 H       1  LIG1        0.0660
     62 H          -2.1985  -11.1967   -0.8653 H       1  LIG1        0.0660
@<TRIPOS>BOND
     1    25    23    1
     2    10     8    1
     3    40    38    1
     4    56    54    1
     5    16    13    1
     6    31    28    1
     7    46    43    1
     8    62    59    1
     9     2     8    1
    10     2     1   ar
    11     2     3   ar
    12    22    21    1
    13    18    23    1
    14    18    17   ar
    15    18    19   ar
    16     8    11    1
    17     8     9    1
    18     6     5    1
    19     4    17    1
    20     4     5   ar
    21     4     3   ar
    22    23    26    1
    23    23    24    1
    24    17    21   ar
    25     5     1   ar
    26    21    20   ar
    27     1     7    1
    28     3    12    1
    29    20    19   ar
    30    20    32    1
    31    37    36    1
    32    12    13    1
    33    19    27    1
    34    13    14    1
    35    13    15    1
    36    32    33   ar
    37    32    36   ar
    38    38    33    1
    39    38    41    1
    40    38    39    1
    41    33    34   ar
    42    36    35   ar
    43    27    28    1
    44    35    34   ar
    45    35    47    1
    46    28    29    1
    47    28    30    1
    48    34    42    1
    49    54    48    1
    50    54    57    1
    51    54    55    1
    52    47    48   ar
    53    47    51   ar
    54    52    51    1
    55    48    49   ar
    56    51    50   ar
    57    42    43    1
    58    43    44    1
    59    43    45    1
    60    50    49   ar
    61    50    53    1
    62    49    58    1
    63    58    59    1
    64    59    60    1
    65    59    61    1
