@<TRIPOS>MOLECULE
mol_data/noopt/geoms/mol2/13il4de12ea13lf.out
 52 55 0 0 0
SMALL
GASTEIGER

@<TRIPOS>ATOM
      1 C           1.1215   -0.3259    0.0002 C.ar    1  LIG1        0.0087
      2 C           0.7176    0.9721   -0.0005 C.ar    1  LIG1        0.0091
      3 C          -0.7144    0.9744    0.0003 C.ar    1  LIG1        0.1481
      4 C          -1.1226   -0.3223   -0.0003 C.ar    1  LIG1        0.0902
      5 N          -0.0018   -1.1217    0.0001 N.ar    1  LIG1       -0.3574
      6 H          -0.0034   -2.1157   -0.0003 H       1  LIG1        0.1655
      7 H           2.3167   -0.8373    0.0007 H       1  LIG1        0.0811
      8 C           1.4920    2.0167   -0.0003 C.3     1  LIG1       -0.0348
      9 H           1.0026    2.8234    0.5042 H       1  LIG1        0.0279
     10 H           1.7045    2.3034   -1.0091 H       1  LIG1        0.0279
     11 H           2.4062    1.7828    0.5041 H       1  LIG1        0.0279
     12 O          -1.4853    2.0212    0.0010 O.3     1  LIG1       -0.4927
     13 C          -0.6829    3.2049    0.0012 C.3     1  LIG1        0.0789
     14 H          -1.3178    4.0662    0.0016 H       1  LIG1        0.0660
     15 H          -0.0650    3.2168    0.8747 H       1  LIG1        0.0660
     16 H          -0.0654    3.2174   -0.8726 H       1  LIG1        0.0660
     17 C          -3.4434    0.0212    0.0008 C.ar    1  LIG1        0.0617
     18 C          -4.7180   -0.5776    0.0025 C.ar    1  LIG1       -0.0318
     19 C          -2.3194   -0.8299   -0.0001 C.ar    1  LIG1        0.0204
     20 C          -4.8692   -1.9625    0.0027 C.ar    1  LIG1        0.0351
     21 H          -5.5988    0.0606    0.0034 H       1  LIG1        0.0638
     22 C          -2.4697   -2.2124    0.0001 C.ar    1  LIG1       -0.0352
     23 C          -3.7444   -2.7884    0.0015 C.ar    1  LIG1        0.0361
     24 H          -1.5874   -2.8474   -0.0005 H       1  LIG1        0.0637
     25 N          -3.2980    2.4635   -0.0000 N.1     1  LIG1       -0.1908
     26 C          -3.3661    1.3189    0.0004 C.1     1  LIG1        0.0998
     27 C          -3.8788   -4.0814    0.0018 C.1     1  LIG1       -0.0689
     28 C          -4.0030   -5.2762    0.0022 C.1     1  LIG1       -0.1139
     29 H          -4.1136   -6.3404    0.0025 H       1  LIG1        0.1232
     30 C          -6.0610   -2.4816    0.0042 C.ar    1  LIG1        0.1523
     31 C          -7.3488   -1.9875    0.0202 C.ar    1  LIG1        0.0710
     32 C          -8.2332   -3.1341    0.0109 C.ar    1  LIG1        0.0018
     33 C          -7.4267   -4.2534   -0.0101 C.ar    1  LIG1        0.1567
     34 O          -6.0831   -3.8769   -0.0147 O.2     1  LIG1       -0.4519
     35 C          -7.7233   -0.7428    0.0398 C.1     1  LIG1       -0.0658
     36 C          -8.0693    0.4074    0.0580 C.1     1  LIG1       -0.1138
     37 H          -8.3775    1.4319    0.0742 H       1  LIG1        0.1232
     38 H          -9.5324   -3.0890    0.0209 H       1  LIG1        0.0668
     39 C          -7.6253   -5.5380   -0.0261 C.ar    1  LIG1        0.1281
     40 C          -8.7824   -6.2515   -0.0373 C.ar    1  LIG1        0.1897
     41 C          -8.4290   -7.6391   -0.0522 C.ar    1  LIG1        0.1769
     42 C          -7.0716   -7.7126   -0.0512 C.ar    1  LIG1        0.0480
     43 N          -6.5755   -6.4285   -0.0348 N.ar    1  LIG1       -0.3522
     44 H          -5.6123   -6.1833   -0.0305 H       1  LIG1        0.1656
     45 H          -6.2827   -8.7458   -0.0617 H       1  LIG1        0.0845
     46 O          -9.9863   -5.7608   -0.0335 O.3     1  LIG1       -0.4894
     47 C          -9.9194   -4.3324   -0.0322 C.3     1  LIG1        0.0791
     48 H         -10.9105   -3.9289   -0.0293 H       1  LIG1        0.0660
     49 H          -9.3967   -4.0005    0.8405 H       1  LIG1        0.0660
     50 H          -9.4012   -3.9987   -0.9068 H       1  LIG1        0.0660
     51 O          -9.2517   -8.6457   -0.0649 O.3     1  LIG1       -0.5023
     52 H          -8.7537   -9.4665   -0.0680 H       1  LIG1        0.2923
@<TRIPOS>BOND
     1    10     8    1
     2    50    47    1
     3    16    13    1
     4    52    51    1
     5    51    41    1
     6    45    42    1
     7    41    42   ar
     8    41    40   ar
     9    42    43   ar
    10    40    46    1
    11    40    39   ar
    12    43    44    1
    13    43    39   ar
    14    46    47    1
    15    47    48    1
    16    47    49    1
    17    39    33    1
    18    34    33   ar
    19    34    30   ar
    20    33    32   ar
    21     2     8    1
    22     2     1   ar
    23     2     3   ar
    24    24    22    1
    25     8    11    1
    26     8     9    1
    27     6     5    1
    28     4    19    1
    29     4     5   ar
    30     4     3   ar
    31    19    22   ar
    32    19    17   ar
    33    25    26    3
    34     5     1   ar
    35    22    23   ar
    36     1     7    1
    37     3    12    1
    38    26    17    1
    39    17    18   ar
    40    12    13    1
    41    13    14    1
    42    13    15    1
    43    23    27    1
    44    23    20   ar
    45    27    28    3
    46    28    29    1
    47    18    20   ar
    48    18    21    1
    49    20    30    1
    50    30    31   ar
    51    32    31   ar
    52    32    38    1
    53    31    35    1
    54    35    36    3
    55    36    37    1
