@<TRIPOS>MOLECULE
mol_data/noopt/geoms/mol2/13il12if(160)6ee(200)13he(330).out
 53 56 0 0 0
SMALL
GASTEIGER

@<TRIPOS>ATOM
      1 C           1.1215   -0.3259    0.0002 C.ar    1  LIG1        0.0088
      2 C           0.7176    0.9721   -0.0005 C.ar    1  LIG1        0.0092
      3 C          -0.7144    0.9744    0.0003 C.ar    1  LIG1        0.1511
      4 C          -1.1226   -0.3223   -0.0003 C.ar    1  LIG1        0.1249
      5 N          -0.0018   -1.1217    0.0001 N.ar    1  LIG1       -0.3551
      6 H          -0.0034   -2.1157   -0.0003 H       1  LIG1        0.1655
      7 H           2.3167   -0.8373    0.0007 H       1  LIG1        0.0811
      8 C           1.4920    2.0167   -0.0003 C.3     1  LIG1       -0.0348
      9 H           1.0026    2.8234    0.5042 H       1  LIG1        0.0279
     10 H           1.7045    2.3034   -1.0091 H       1  LIG1        0.0279
     11 H           2.4062    1.7828    0.5041 H       1  LIG1        0.0279
     12 O          -1.4853    2.0212    0.0010 O.3     1  LIG1       -0.4926
     13 C          -0.6829    3.2049    0.0012 C.3     1  LIG1        0.0789
     14 H          -1.3178    4.0662    0.0016 H       1  LIG1        0.0660
     15 H          -0.0650    3.2168    0.8747 H       1  LIG1        0.0660
     16 H          -0.0654    3.2174   -0.8726 H       1  LIG1        0.0660
     17 C          -2.3194   -0.8299   -0.0001 C.ar    1  LIG1        0.1619
     18 C          -2.8648   -2.0624    0.2940 C.ar    1  LIG1        0.0390
     19 C          -4.2925   -1.9455    0.0821 C.ar    1  LIG1        0.1663
     20 C          -4.5249   -0.6486   -0.3275 C.ar    1  LIG1        0.1799
     21 O          -3.3238    0.0590   -0.3858 O.2     1  LIG1       -0.4491
     22 C          -2.2427   -3.1349    0.6861 C.3     1  LIG1       -0.0325
     23 H          -1.3927   -2.8591    1.2746 H       1  LIG1        0.0280
     24 H          -1.9194   -3.6922   -0.1682 H       1  LIG1        0.0280
     25 H          -2.9042   -3.7358    1.2745 H       1  LIG1        0.0280
     26 O          -5.1640   -2.8950    0.2525 O.3     1  LIG1       -0.5030
     27 H          -4.7121   -3.7409    0.2945 H       1  LIG1        0.2923
     28 C          -5.6076    1.4329   -0.4428 C.ar    1  LIG1        0.1247
     29 C          -5.5736    0.0435   -0.6611 C.ar    1  LIG1        0.0559
     30 C          -6.6867   -0.5677   -1.2412 C.ar    1  LIG1       -0.0307
     31 C          -7.7865    0.2222   -1.5804 C.ar    1  LIG1        0.0529
     32 C          -7.7258    1.6040   -1.3226 C.ar    1  LIG1        0.1057
     33 N          -6.6601    2.2101   -0.7639 N.ar    1  LIG1       -0.2349
     34 H          -6.6971   -1.6512   -1.4261 H       1  LIG1        0.0638
     35 C          -4.5956    2.0473    0.0943 C.1     1  LIG1       -0.0491
     36 C          -3.6605    2.6149    0.5905 C.1     1  LIG1       -0.1124
     37 H          -2.8276    3.1206    1.0326 H       1  LIG1        0.1232
     38 C          -8.8468   -0.2992   -2.1225 C.1     1  LIG1       -0.0674
     39 C          -9.8265   -0.7809   -2.6235 C.1     1  LIG1       -0.1138
     40 H         -10.6992   -1.2101   -3.0697 H       1  LIG1        0.1232
     41 C          -8.7245    2.3811   -1.6207 C.ar    1  LIG1        0.0883
     42 C          -8.7531    3.5608   -2.2956 C.ar    1  LIG1        0.0673
     43 C         -10.1170    3.9949   -2.3404 C.ar    1  LIG1        0.0632
     44 C         -10.8621    3.0605   -1.6923 C.ar    1  LIG1        0.0195
     45 N         -10.0134    2.0710   -1.2497 N.ar    1  LIG1       -0.3568
     46 H         -10.2878    1.2609   -0.7433 H       1  LIG1        0.1655
     47 H         -12.1419    3.0077   -1.4703 H       1  LIG1        0.0820
     48 N          -7.7286    4.1788   -2.8040 N.pl3   1  LIG1       -0.3553
     49 H          -7.2021    3.5429   -3.3682 H       1  LIG1        0.1424
     50 H          -8.0455    4.9412   -3.3682 H       1  LIG1        0.1424
     51 C         -10.5642    5.0811   -2.8973 C.1     1  LIG1       -0.0663
     52 C         -10.9774    6.0847   -3.4120 C.1     1  LIG1       -0.1138
     53 H         -11.3454    6.9787   -3.8704 H       1  LIG1        0.1232
@<TRIPOS>BOND
     1    53    52    1
     2    52    51    3
     3    50    48    1
     4    49    48    1
     5    40    39    1
     6    51    43    1
     7    48    42    1
     8    39    38    3
     9    43    42   ar
    10    43    44   ar
    11    42    41   ar
    12    38    31    1
    13    44    47    1
    14    44    45   ar
    15    41    32    1
    16    41    45   ar
    17    31    32   ar
    18    31    30   ar
    19    34    30    1
    20    32    33   ar
    21    45    46    1
    22    30    29   ar
    23    10     8    1
    24    16    13    1
    25    33    28   ar
    26    29    28   ar
    27    29    20    1
    28    28    35    1
    29    21    20   ar
    30    21    17   ar
    31    20    19   ar
    32    24    22    1
    33     2     8    1
    34     2     1   ar
    35     2     3   ar
    36     8    11    1
    37     8     9    1
    38     4    17    1
    39     4     5   ar
    40     4     3   ar
    41     6     5    1
    42    17    18   ar
    43     5     1   ar
    44     1     7    1
    45     3    12    1
    46    12    13    1
    47    13    14    1
    48    13    15    1
    49    19    26    1
    50    19    18   ar
    51    35    36    3
    52    26    27    1
    53    18    22    1
    54    36    37    1
    55    22    25    1
    56    22    23    1
