@<TRIPOS>MOLECULE
mol_data/noopt/geoms/mol2/13il12ia6ia-4df6fi-6hh-4ii13ef-.out
 104 110 0 0 0
SMALL
GASTEIGER

@<TRIPOS>ATOM
      1 C           1.1215   -0.3259    0.0002 C.ar    1  LIG1        0.0088
      2 C           0.7176    0.9721   -0.0005 C.ar    1  LIG1        0.0092
      3 C          -0.7144    0.9744    0.0003 C.ar    1  LIG1        0.1511
      4 C          -1.1226   -0.3223   -0.0003 C.ar    1  LIG1        0.1248
      5 N          -0.0018   -1.1217    0.0001 N.ar    1  LIG1       -0.3551
      6 H          -0.0034   -2.1157   -0.0003 H       1  LIG1        0.1655
      7 H           2.3167   -0.8373    0.0007 H       1  LIG1        0.0811
      8 C           1.4920    2.0167   -0.0003 C.3     1  LIG1       -0.0348
      9 H           1.0026    2.8234    0.5042 H       1  LIG1        0.0279
     10 H           1.7045    2.3034   -1.0091 H       1  LIG1        0.0279
     11 H           2.4062    1.7828    0.5041 H       1  LIG1        0.0279
     12 O          -1.4853    2.0212    0.0010 O.3     1  LIG1       -0.4926
     13 C          -0.6829    3.2049    0.0012 C.3     1  LIG1        0.0789
     14 H          -1.3178    4.0662    0.0016 H       1  LIG1        0.0660
     15 H          -0.0650    3.2168    0.8747 H       1  LIG1        0.0660
     16 H          -0.0654    3.2174   -0.8726 H       1  LIG1        0.0660
     17 C          -2.3194   -0.8299   -0.0001 C.ar    1  LIG1        0.1582
     18 C          -3.6024   -0.3233    0.0148 C.ar    1  LIG1       -0.0025
     19 C          -4.4979   -1.4613    0.0044 C.ar    1  LIG1       -0.0122
     20 C          -3.7022   -2.5883   -0.0164 C.ar    1  LIG1        0.1377
     21 O          -2.3551   -2.2249   -0.0196 O.2     1  LIG1       -0.4529
     22 C          -3.9649    0.9253    0.0347 C.3     1  LIG1       -0.0360
     23 H          -4.9012    1.0169    0.5445 H       1  LIG1        0.0279
     24 H          -4.0687    1.2826   -0.9686 H       1  LIG1        0.0279
     25 H          -3.2231    1.5040    0.5444 H       1  LIG1        0.0279
     26 H          -5.7965   -1.4036    0.0131 H       1  LIG1        0.0658
     27 C          -2.8310   -4.7694   -0.0632 C.ar    1  LIG1        0.0495
     28 C          -3.9133   -3.8710   -0.0331 C.ar    1  LIG1        0.0383
     29 C          -5.2096   -4.3889   -0.0213 C.ar    1  LIG1       -0.0473
     30 C          -5.3799   -5.7743   -0.0401 C.ar    1  LIG1       -0.0350
     31 C          -4.2349   -6.5913   -0.0702 C.ar    1  LIG1        0.0726
     32 N          -2.9771   -6.1085   -0.0816 N.ar    1  LIG1       -0.2511
     33 H          -6.0800   -3.7179    0.0011 H       1  LIG1        0.0626
     34 C          -1.6054   -4.3352   -0.0751 C.3     1  LIG1       -0.0216
     35 H          -1.5566   -3.3911    0.4261 H       1  LIG1        0.0293
     36 H          -1.2779   -4.2191   -1.0871 H       1  LIG1        0.0293
     37 H          -0.9732   -5.0381    0.4260 H       1  LIG1        0.0293
     38 H          -6.5663   -6.3058   -0.0304 H       1  LIG1        0.0639
     39 C          -5.6181   -8.4860   -0.0975 C.ar    1  LIG1        0.0617
     40 C          -5.6805   -9.8928   -0.1158 C.ar    1  LIG1       -0.0323
     41 C          -4.3419   -7.8867   -0.0884 C.ar    1  LIG1        0.0212
     42 C          -4.5248  -10.6705   -0.1252 C.ar    1  LIG1        0.0299
     43 H          -6.6551  -10.3758   -0.1229 H       1  LIG1        0.0638
     44 C          -3.1878   -8.6626   -0.0978 C.ar    1  LIG1       -0.0092
     45 C          -3.2706  -10.0587   -0.1163 C.ar    1  LIG1        0.1254
     46 H          -2.2154   -8.1768   -0.0904 H       1  LIG1        0.0661
     47 N          -7.7127   -7.2218   -0.0829 N.1     1  LIG1       -0.1908
     48 C          -6.7311   -7.8143   -0.0897 C.1     1  LIG1        0.0998
     49 O          -2.1883  -10.7789   -0.1249 O.3     1  LIG1       -0.5061
     50 H          -1.4202  -10.2030   -0.1270 H       1  LIG1        0.2922
     51 C          -3.4604  -12.7641   -0.1724 C.ar    1  LIG1        0.2209
     52 C          -4.6193  -11.9669   -0.1422 C.ar    1  LIG1        0.0473
     53 C          -5.8636  -12.5997   -0.1306 C.ar    1  LIG1       -0.0439
     54 C          -5.9082  -13.9948   -0.1496 C.ar    1  LIG1       -0.0235
     55 C          -4.6941  -14.7052   -0.1798 C.ar    1  LIG1        0.0811
     56 N          -3.4850  -14.1109   -0.1911 N.ar    1  LIG1       -0.2121
     57 H          -6.7910  -12.0100   -0.1080 H       1  LIG1        0.0629
     58 O          -2.2792  -12.2212   -0.1841 O.3     1  LIG1       -0.4920
     59 H          -2.3660  -11.2651   -0.1870 H       1  LIG1        0.2937
     60 C          -7.0421  -14.6313   -0.1401 C.3     1  LIG1       -0.0377
     61 H          -6.9222  -15.5659    0.3669 H       1  LIG1        0.0278
     62 H          -7.3595  -14.8096   -1.1463 H       1  LIG1        0.0278
     63 H          -7.7775  -14.0422    0.3669 H       1  LIG1        0.0278
     64 C          -3.4646  -16.7062   -0.2295 C.ar    1  LIG1        0.1262
     65 C          -4.6839  -16.0050   -0.1983 C.ar    1  LIG1        0.0420
     66 C          -5.8733  -16.7360   -0.1876 C.ar    1  LIG1       -0.0265
     67 C          -5.8054  -18.1301   -0.2084 C.ar    1  LIG1        0.0517
     68 C          -4.5380  -18.7403   -0.2393 C.ar    1  LIG1        0.0943
     69 N          -3.3807  -18.0505   -0.2498 N.ar    1  LIG1       -0.2299
     70 H          -6.8451  -16.2229   -0.1644 H       1  LIG1        0.0644
     71 N          -2.3310  -16.0699   -0.2404 N.pl3   1  LIG1       -0.3426
     72 H          -1.6441  -16.6207   -0.7146 H       1  LIG1        0.1437
     73 H          -2.4434  -15.1967   -0.7147 H       1  LIG1        0.1437
     74 N          -6.8840  -18.8557   -0.1997 N.pl3   1  LIG1       -0.3563
     75 H          -7.6189  -18.3660   -0.6689 H       1  LIG1        0.1424
     76 H          -6.7075  -19.7209   -0.6689 H       1  LIG1        0.0227
     77 C          -5.5786  -20.8427   -0.2695 C.ar    1  LIG1       -0.0074
     78 C          -5.4008  -22.2396   -0.2897 C.ar    1  LIG1       -0.0440
     79 C          -4.4231  -20.0350   -0.2594 C.ar    1  LIG1        0.0102
     80 C          -4.1296  -22.8093   -0.3001 C.ar    1  LIG1        0.0031
     81 H          -6.2790  -22.8814   -0.2976 H       1  LIG1        0.0630
     82 C          -3.1538  -20.6032   -0.2697 C.ar    1  LIG1       -0.0484
     83 C          -2.9978  -21.9931   -0.2902 C.ar    1  LIG1       -0.0407
     84 H          -2.2782  -19.9590   -0.2615 H       1  LIG1        0.0627
     85 C          -6.7900  -20.3701   -0.2609 C.3     2  LIG2       -0.0681
     86 H          -7.4367  -21.0555    0.2459 H       1  LIG1        0.0227
     87 H          -7.1285  -20.2380   -1.2673 H       1  LIG1        0.0227
     88 H          -6.8015  -19.4277    0.2458 H       1  LIG1        0.1424
     89 C          -1.8085  -22.5187   -0.2997 C.3     1  LIG1       -0.0391
     90 H          -1.1258  -21.8652    0.2021 H       1  LIG1        0.0278
     91 H          -1.4889  -22.6598   -1.3111 H       1  LIG1        0.0278
     92 H          -1.8321  -23.4634    0.2021 H       1  LIG1        0.0278
     93 C          -4.0021  -24.1029   -0.3189 C.ar    1  LIG1        0.0660
     94 C          -4.9450  -25.0821   -0.3154 C.ar    1  LIG1        0.0912
     95 C          -4.2574  -26.3380   -0.3422 C.ar    1  LIG1        0.1500
     96 C          -2.9246  -26.0709   -0.3626 C.ar    1  LIG1        0.0454
     97 N          -2.7639  -24.7037   -0.3480 N.ar    1  LIG1       -0.3566
     98 H          -1.8921  -24.2262   -0.3576 H       1  LIG1        0.1655
     99 H          -1.9035  -26.8749   -0.3901 H       1  LIG1        0.0845
    100 C          -6.2329  -24.9069   -0.2907 C.1     1  LIG1       -0.0639
    101 C          -7.4229  -24.7451   -0.2678 C.1     1  LIG1       -0.1137
    102 H          -8.4830  -24.6009   -0.2474 H       1  LIG1        0.1232
    103 O          -4.8033  -27.5178   -0.3466 O.3     1  LIG1       -0.5040
    104 H          -4.1166  -28.1886   -0.3477 H       1  LIG1        0.2923
@<TRIPOS>BOND
     1    91    89    1
     2    87    85    1
     3    62    60    1
     4    36    34    1
     5    10     8    1
     6    24    22    1
     7    16    13    1
     8    73    71    1
     9    72    71    1
    10    76    85    1
    11    75    74    1
    12    99    96    1
    13    96    97   ar
    14    96    95   ar
    15    98    97    1
    16    97    93   ar
    17   104   103    1
    18   103    95    1
    19    95    94   ar
    20    93    94   ar
    21    93    80    1
    22    94   100    1
    23    80    83   ar
    24    80    78   ar
    25    89    83    1
    26    89    92    1
    27    89    90    1
    28    81    78    1
    29   100   101    3
    30    83    82   ar
    31    78    77   ar
    32    82    84    1
    33    82    79   ar
    34    77    79   ar
    35   101   102    1
    36    85    86    1
    37    79    68    1
    38    69    68   ar
    39    69    64   ar
    40    71    64    1
    41    68    67   ar
    42    64    65   ar
    43    67    74    1
    44    67    66   ar
    45    74    88    1
    46    65    66   ar
    47    65    55    1
    48    56    55   ar
    49    56    51   ar
    50    66    70    1
    51    59    58    1
    52    58    51    1
    53    55    54   ar
    54    51    52   ar
    55    54    60    1
    56    54    53   ar
    57    52    53   ar
    58    52    42    1
    59    60    63    1
    60    60    61    1
    61    53    57    1
    62    50    49    1
    63    42    45   ar
    64    42    40   ar
    65    49    45    1
    66    43    40    1
    67    45    44   ar
    68    40    39   ar
    69    44    46    1
    70    44    41   ar
    71    39    48    1
    72    39    41   ar
    73    48    47    3
    74    41    31    1
    75    32    31   ar
    76    32    27   ar
    77    34    27    1
    78    34    37    1
    79    34    35    1
    80    31    30   ar
    81    27    28   ar
    82    30    38    1
    83    30    29   ar
    84    28    29   ar
    85    28    20    1
    86    29    33    1
    87    21    20   ar
    88    21    17   ar
    89    20    19   ar
    90     2     8    1
    91     2     1   ar
    92     2     3   ar
    93     8    11    1
    94     8     9    1
    95     4    17    1
    96     4     5   ar
    97     4     3   ar
    98     6     5    1
    99    17    18   ar
   100     5     1   ar
   101     1     7    1
   102     3    12    1
   103    12    13    1
   104    13    14    1
   105    13    15    1
   106    19    26    1
   107    19    18   ar
   108    18    22    1
   109    22    25    1
   110    22    23    1
