@<TRIPOS>MOLECULE
mol_data/noopt/geoms/mol2/13il13dd-13ad-13le-.out
 50 52 0 0 0
SMALL
GASTEIGER

@<TRIPOS>ATOM
      1 C           1.1215   -0.3259    0.0002 C.ar    1  LIG1        0.0087
      2 C           0.7176    0.9721   -0.0005 C.ar    1  LIG1        0.0092
      3 C          -0.7144    0.9744    0.0003 C.ar    1  LIG1        0.1496
      4 C          -1.1226   -0.3223   -0.0003 C.ar    1  LIG1        0.1067
      5 N          -0.0018   -1.1217    0.0001 N.ar    1  LIG1       -0.3563
      6 H          -0.0034   -2.1157   -0.0003 H       1  LIG1        0.1655
      7 H           2.3167   -0.8373    0.0007 H       1  LIG1        0.0811
      8 C           1.4920    2.0167   -0.0003 C.3     1  LIG1       -0.0348
      9 H           1.0026    2.8234    0.5042 H       1  LIG1        0.0279
     10 H           1.7045    2.3034   -1.0091 H       1  LIG1        0.0279
     11 H           2.4062    1.7828    0.5041 H       1  LIG1        0.0279
     12 O          -1.4853    2.0212    0.0010 O.3     1  LIG1       -0.4927
     13 C          -0.6829    3.2049    0.0012 C.3     1  LIG1        0.0789
     14 H          -1.3178    4.0662    0.0016 H       1  LIG1        0.0660
     15 H          -0.0650    3.2168    0.8747 H       1  LIG1        0.0660
     16 H          -0.0654    3.2174   -0.8726 H       1  LIG1        0.0660
     17 C          -2.3194   -0.8299   -0.0001 C.ar    1  LIG1        0.0858
     18 C          -3.5353   -0.2219   -0.0003 C.ar    1  LIG1        0.0965
     19 C          -4.5290   -1.2530    0.0012 C.ar    1  LIG1        0.0964
     20 C          -3.8767   -2.4457    0.0005 C.ar    1  LIG1        0.0822
     21 N          -2.5238   -2.1913    0.0002 N.ar    1  LIG1       -0.3497
     22 H          -1.8081   -2.8811   -0.0004 H       1  LIG1        0.1661
     23 N          -3.9431    2.1904   -0.0003 N.1     1  LIG1       -0.1908
     24 C          -3.7520    1.0599   -0.0003 C.1     1  LIG1        0.1027
     25 N          -6.9548   -0.9344    0.0036 N.1     1  LIG1       -0.1908
     26 C          -5.8179   -1.0837    0.0025 C.1     1  LIG1        0.1026
     27 C          -4.3398   -3.6604    0.0012 C.ar    1  LIG1        0.0653
     28 C          -5.6205   -4.1161    0.0179 C.ar    1  LIG1       -0.0265
     29 C          -5.5654   -5.5470    0.0109 C.ar    1  LIG1        0.0117
     30 C          -4.2536   -5.9029   -0.0115 C.ar    1  LIG1        0.0750
     31 N          -3.4998   -4.7509   -0.0171 N.ar    1  LIG1       -0.3513
     32 H          -2.5066   -4.7126   -0.0325 H       1  LIG1        0.1660
     33 H          -6.6948   -3.3844    0.0381 H       1  LIG1        0.0645
     34 N          -7.4755   -7.0756    0.0341 N.3     1  LIG1       -0.1324
     35 C          -6.5804   -6.3592    0.0232 C.3     1  LIG1        0.0975
     36 C          -3.6985   -7.0783   -0.0256 C.ar    1  LIG1        0.1120
     37 C          -4.2574   -8.3175   -0.0355 C.ar    1  LIG1        0.2207
     38 C          -3.1874   -9.2691   -0.0484 C.ar    1  LIG1        0.0892
     39 C          -2.0218   -8.5696   -0.0476 C.ar    1  LIG1        0.0215
     40 N          -2.3301   -7.2280   -0.0332 N.ar    1  LIG1       -0.3553
     41 H          -1.6695   -6.4853   -0.0295 H       1  LIG1        0.1655
     42 H          -0.7895   -8.9837   -0.0567 H       1  LIG1        0.0820
     43 O          -5.5295   -8.5854   -0.0321 O.3     1  LIG1       -0.2843
     44 C          -6.2743   -7.3646   -0.0310 C.3     1  LIG1       -0.0400
     45 H          -7.3213   -7.5855   -0.0284 H       1  LIG1        0.0250
     46 H          -6.0274   -6.7970    0.8419 H       1  LIG1        0.0250
     47 H          -6.0316   -6.7978   -0.9054 H       1  LIG1        0.0250
     48 C          -3.3050  -10.5637   -0.0593 C.1     1  LIG1       -0.0643
     49 C          -3.4137  -11.7600   -0.0695 C.1     1  LIG1       -0.1137
     50 H          -3.5105  -12.8256   -0.0785 H       1  LIG1        0.1232
@<TRIPOS>BOND
     1    10     8    1
     2    47    44    1
     3    16    13    1
     4    50    49    1
     5    49    48    3
     6    48    38    1
     7    42    39    1
     8    38    39   ar
     9    38    37   ar
    10    39    40   ar
    11    37    43    1
    12    37    36   ar
    13    40    41    1
    14    40    36   ar
    15    32    31    1
    16    44    45    1
    17    44    35    1
    18    44    46    1
    19    36    30    1
    20    31    30   ar
    21    31    27   ar
    22    30    29   ar
    23     2     8    1
    24     2     1   ar
    25     2     3   ar
    26    22    21    1
    27    18    24    1
    28    18    17   ar
    29    18    19   ar
    30     8    11    1
    31     8     9    1
    32     6     5    1
    33     4    17    1
    34     4     5   ar
    35     4     3   ar
    36    24    23    3
    37    17    21   ar
    38     5     1   ar
    39    21    20   ar
    40     1     7    1
    41     3    12    1
    42    20    19   ar
    43    20    27    1
    44    12    13    1
    45    19    26    1
    46    13    14    1
    47    13    15    1
    48    27    28   ar
    49    26    25    3
    50    29    28   ar
    51    28    33    1
    52    35    34    1
