@<TRIPOS>MOLECULE
mol_data/noopt/geoms/mol2/13il13il-13il-13il.out
 62 61 0 0 0
SMALL
GASTEIGER

@<TRIPOS>ATOM
      1 C           1.1215   -0.3259    0.0002 C.ar    1  LIG1        0.0087
      2 C           0.7176    0.9721   -0.0005 C.ar    1  LIG1        0.0092
      3 C          -0.7144    0.9744    0.0003 C.ar    1  LIG1        0.1495
      4 C          -1.1226   -0.3223   -0.0003 C.ar    1  LIG1        0.1057
      5 N          -0.0018   -1.1217    0.0001 N.ar    1  LIG1       -0.3563
      6 H          -0.0034   -2.1157   -0.0003 H       1  LIG1        0.1655
      7 H           2.3167   -0.8373    0.0007 H       1  LIG1        0.0811
      8 C           1.4920    2.0167   -0.0003 C.3     1  LIG1       -0.0348
      9 H           1.0026    2.8234    0.5042 H       1  LIG1        0.0279
     10 H           1.7045    2.3034   -1.0091 H       1  LIG1        0.0279
     11 H           2.4062    1.7828    0.5041 H       1  LIG1        0.0279
     12 O          -1.4853    2.0212    0.0010 O.3     1  LIG1       -0.4927
     13 C          -0.6829    3.2049    0.0012 C.3     1  LIG1        0.0789
     14 H          -1.3178    4.0662    0.0016 H       1  LIG1        0.0660
     15 H          -0.0650    3.2168    0.8747 H       1  LIG1        0.0660
     16 H          -0.0654    3.2174   -0.8726 H       1  LIG1        0.0660
     17 C          -2.3194   -0.8299   -0.0001 C.ar    1  LIG1        0.0737
     18 C          -2.7274   -2.1266   -0.0005 C.ar    1  LIG1        0.0237
     19 C          -4.1594   -2.1244    0.0011 C.ar    1  LIG1        0.2090
     20 C          -4.5635   -0.8264    0.0006 C.ar    1  LIG1        0.1116
     21 N          -3.4402   -0.0305    0.0003 N.ar    1  LIG1       -0.3485
     22 H          -3.4386    0.9635   -0.0001 H       1  LIG1        0.1661
     23 C          -1.9564   -3.1736   -0.0006 C.3     1  LIG1       -0.0340
     24 H          -1.0413   -2.9428    0.5038 H       1  LIG1        0.0279
     25 H          -1.7448   -3.4607   -1.0095 H       1  LIG1        0.0279
     26 H          -2.4483   -3.9789    0.5037 H       1  LIG1        0.0279
     27 O          -4.9337   -3.1687    0.0023 O.3     1  LIG1       -0.2853
     28 C          -6.3008   -2.7494    0.0027 C.3     1  LIG1       -0.0619
     29 H          -6.9376   -3.6092    0.0035 H       1  LIG1        0.0233
     30 H          -6.4935   -2.1620    0.8761 H       1  LIG1        0.0233
     31 H          -6.4943   -2.1631   -0.8712 H       1  LIG1        0.0233
     32 C          -5.7587   -0.3150    0.0014 C.ar    1  LIG1        0.0789
     33 C          -6.9765   -0.9191    0.0015 C.ar    1  LIG1        0.0621
     34 C          -7.9670    0.1151    0.0037 C.ar    1  LIG1        0.2140
     35 C          -7.3109    1.3057    0.0031 C.ar    1  LIG1        0.1137
     36 N          -5.9587    1.0470    0.0022 N.ar    1  LIG1       -0.3481
     37 H          -5.2408    1.7345    0.0016 H       1  LIG1        0.1661
     38 C          -7.1973   -2.2005    0.0012 C.3     1  LIG1       -0.0382
     39 H          -6.3970   -2.7005    0.5056 H       2  UNK2        0.0000
     40 H          -7.2578   -2.5518   -1.0077 H       3  UNK3        0.0000
     41 H          -8.1189   -2.4037    0.5055 H       1  LIG1        0.0303
     42 O          -9.2565   -0.0501    0.0054 O.3     1  LIG1       -0.2849
     43 C          -9.9012    1.2263    0.0060 C.3     4  LIG4       -0.0776
     44 H         -10.9624    1.0899    0.0073 H       2  UNK2        0.0194
     45 H          -9.6107    1.7723    0.8793 H       2  UNK2        0.0194
     46 H          -9.6128    1.7720   -0.8680 H       2  UNK2        0.0194
     47 C          -7.7701    2.5219    0.0044 C.ar    1  LIG1        0.0974
     48 C          -7.1139    3.7125    0.0049 C.ar    1  LIG1        0.0201
     49 C          -8.1043    4.7467    0.0074 C.ar    1  LIG1        0.1430
     50 C          -9.3222    4.1427    0.0066 C.ar    1  LIG1        0.0703
     51 N          -9.1222    2.7807    0.0052 N.ar    1  LIG1       -0.2494
     52 H          -9.8401    2.0932    0.0043 H       2  UNK2        0.0194
     53 H         -10.5174    4.6541    0.0080 H       1  LIG1        0.0867
     54 C          -5.8241    3.8777    0.0047 C.3     1  LIG1       -0.0341
     55 H          -5.5813    4.7896    0.5090 H       1  LIG1        0.0279
     56 H          -5.4705    3.9230   -1.0042 H       1  LIG1        0.0279
     57 H          -5.3593    3.0564    0.5090 H       1  LIG1        0.0279
     58 O          -7.8835    6.0279    0.0096 O.3     1  LIG1       -0.4933
     59 C          -6.4740    6.2692    0.0103 C.3     1  LIG1        0.0789
     60 H          -6.2927    7.3238    0.0120 H       1  LIG1        0.0660
     61 H          -6.0375    5.8310    0.8835 H       1  LIG1        0.0660
     62 H          -6.0371    5.8336   -0.8638 H       1  LIG1        0.0660
@<TRIPOS>BOND
     1    25    23    1
     2    10     8    1
     3    56    54    1
     4    16    13    1
     5    31    28    1
     6    46    43    1
     7    62    59    1
     8    23    18    1
     9    23    26    1
    10    23    24    1
    11     2     8    1
    12     2     1   ar
    13     2     3   ar
    14    18    17   ar
    15    18    19   ar
    16     8    11    1
    17     8     9    1
    18     6     5    1
    19     4    17    1
    20     4     5   ar
    21     4     3   ar
    22    22    21    1
    23    17    21   ar
    24     5     1   ar
    25     1     7    1
    26     3    12    1
    27    21    20   ar
    28    20    19   ar
    29    20    32    1
    30    12    13    1
    31    19    27    1
    32    13    14    1
    33    13    15    1
    34    38    28    1
    35    38    41    1
    36    32    33   ar
    37    32    36   ar
    38    33    34   ar
    39    37    36    1
    40    36    35   ar
    41    28    29    1
    42    28    30    1
    43    35    34   ar
    44    35    47    1
    45    34    42    1
    46    52    43    1
    47    47    48   ar
    48    47    51   ar
    49    54    48    1
    50    54    57    1
    51    54    55    1
    52    48    49   ar
    53    51    50   ar
    54    43    44    1
    55    43    45    1
    56    50    49   ar
    57    50    53    1
    58    49    58    1
    59    58    59    1
    60    59    60    1
    61    59    61    1
