@<TRIPOS>MOLECULE
mol_data/noopt/geoms/mol2/13il13il-13il13il-.out
 62 64 0 0 0
SMALL
GASTEIGER

@<TRIPOS>ATOM
      1 C           1.1215   -0.3259    0.0002 C.ar    1  LIG1        0.0087
      2 C           0.7176    0.9721   -0.0005 C.ar    1  LIG1        0.0092
      3 C          -0.7144    0.9744    0.0003 C.ar    1  LIG1        0.1495
      4 C          -1.1226   -0.3223   -0.0003 C.ar    1  LIG1        0.1057
      5 N          -0.0018   -1.1217    0.0001 N.ar    1  LIG1       -0.3563
      6 H          -0.0034   -2.1157   -0.0003 H       1  LIG1        0.1655
      7 H           2.3167   -0.8373    0.0007 H       1  LIG1        0.0811
      8 C           1.4920    2.0167   -0.0003 C.3     1  LIG1       -0.0348
      9 H           1.0026    2.8234    0.5042 H       1  LIG1        0.0279
     10 H           1.7045    2.3034   -1.0091 H       1  LIG1        0.0279
     11 H           2.4062    1.7828    0.5041 H       1  LIG1        0.0279
     12 O          -1.4853    2.0212    0.0010 O.3     1  LIG1       -0.4927
     13 C          -0.6829    3.2049    0.0012 C.3     1  LIG1        0.0789
     14 H          -1.3178    4.0662    0.0016 H       1  LIG1        0.0660
     15 H          -0.0650    3.2168    0.8747 H       1  LIG1        0.0660
     16 H          -0.0654    3.2174   -0.8726 H       1  LIG1        0.0660
     17 C          -2.3194   -0.8299   -0.0001 C.ar    1  LIG1        0.0737
     18 C          -2.7274   -2.1266   -0.0005 C.ar    1  LIG1        0.0237
     19 C          -4.1594   -2.1244    0.0011 C.ar    1  LIG1        0.2091
     20 C          -4.5635   -0.8264    0.0006 C.ar    1  LIG1        0.1133
     21 N          -3.4402   -0.0305    0.0003 N.ar    1  LIG1       -0.3484
     22 H          -3.4386    0.9635   -0.0001 H       1  LIG1        0.1661
     23 C          -1.9564   -3.1736   -0.0006 C.3     1  LIG1       -0.0340
     24 H          -1.0413   -2.9428    0.5038 H       1  LIG1        0.0279
     25 H          -1.7448   -3.4607   -1.0095 H       1  LIG1        0.0279
     26 H          -2.4483   -3.9789    0.5037 H       1  LIG1        0.0279
     27 O          -4.9337   -3.1687    0.0023 O.3     1  LIG1       -0.2853
     28 C          -6.3008   -2.7494    0.0027 C.3     2  LIG2       -0.0776
     29 H          -6.9376   -3.6092    0.0035 H       1  LIG1        0.0194
     30 H          -6.4935   -2.1620    0.8761 H       1  LIG1        0.0194
     31 H          -6.4943   -2.1631   -0.8712 H       1  LIG1        0.0194
     32 C          -5.7587   -0.3150    0.0014 C.ar    1  LIG1        0.0982
     33 C          -6.1626    0.9830    0.0016 C.ar    1  LIG1        0.0208
     34 C          -7.5946    0.9853    0.0038 C.ar    1  LIG1        0.1523
     35 C          -8.0028   -0.3114    0.0030 C.ar    1  LIG1        0.1300
     36 N          -6.8820   -1.1108    0.0021 N.ar    1  LIG1       -0.2396
     37 H          -6.8836   -2.1048    0.0013 H       1  LIG1        0.0194
     38 C          -5.3882    2.0276    0.0015 C.3     1  LIG1       -0.0341
     39 H          -5.8776    2.8344    0.5059 H       1  LIG1        0.0279
     40 H          -5.1759    2.3141   -1.0073 H       1  LIG1        0.0279
     41 H          -4.4739    1.7938    0.5059 H       1  LIG1        0.0279
     42 O          -8.3655    2.0321    0.0056 O.3     1  LIG1       -0.4926
     43 C          -7.5631    3.2158    0.0062 C.3     1  LIG1        0.0789
     44 H          -8.1980    4.0771    0.0075 H       1  LIG1        0.0660
     45 H          -6.9448    3.2271    0.8794 H       1  LIG1        0.0660
     46 H          -6.9461    3.2289   -0.8679 H       1  LIG1        0.0660
     47 C          -9.1996   -0.8190    0.0041 C.ar    1  LIG1        0.0751
     48 C          -9.6076   -2.1157    0.0044 C.ar    1  LIG1        0.0181
     49 C         -11.0396   -2.1135    0.0069 C.ar    1  LIG1        0.1408
     50 C         -11.4437   -0.8155    0.0063 C.ar    1  LIG1        0.0447
     51 N         -10.3204   -0.0196    0.0051 N.ar    1  LIG1       -0.3561
     52 H         -10.3188    0.9744    0.0043 H       1  LIG1        0.1655
     53 H         -12.6389   -0.3041    0.0077 H       1  LIG1        0.0844
     54 C          -8.8366   -3.1627    0.0040 C.3     1  LIG1       -0.0342
     55 H          -7.9215   -2.9320    0.5084 H       1  LIG1        0.0279
     56 H          -8.6251   -3.4497   -1.0049 H       1  LIG1        0.0279
     57 H          -9.3285   -3.9681    0.5083 H       1  LIG1        0.0279
     58 O         -11.8139   -3.1578    0.0089 O.3     1  LIG1       -0.4933
     59 C         -13.1810   -2.7385    0.0095 C.3     1  LIG1        0.0789
     60 H         -13.8179   -3.5983    0.0110 H       1  LIG1        0.0660
     61 H         -13.3734   -2.1507    0.8828 H       1  LIG1        0.0660
     62 H         -13.3748   -2.1526   -0.8645 H       1  LIG1        0.0660
@<TRIPOS>BOND
     1    25    23    1
     2    10     8    1
     3    40    38    1
     4    56    54    1
     5    16    13    1
     6    31    28    1
     7    46    43    1
     8    62    59    1
     9    23    18    1
    10    23    26    1
    11    23    24    1
    12     2     8    1
    13     2     1   ar
    14     2     3   ar
    15    18    17   ar
    16    18    19   ar
    17     8    11    1
    18     8     9    1
    19     6     5    1
    20     4    17    1
    21     4     5   ar
    22     4     3   ar
    23    22    21    1
    24    17    21   ar
    25     5     1   ar
    26     1     7    1
    27     3    12    1
    28    21    20   ar
    29    20    19   ar
    30    20    32    1
    31    12    13    1
    32    19    27    1
    33    13    14    1
    34    13    15    1
    35    37    28    1
    36    32    33   ar
    37    32    36   ar
    38    38    33    1
    39    38    41    1
    40    38    39    1
    41    33    34   ar
    42    36    35   ar
    43    28    29    1
    44    28    30    1
    45    35    34   ar
    46    35    47    1
    47    34    42    1
    48    54    48    1
    49    54    57    1
    50    54    55    1
    51    47    48   ar
    52    47    51   ar
    53    52    51    1
    54    48    49   ar
    55    51    50   ar
    56    42    43    1
    57    43    44    1
    58    43    45    1
    59    50    49   ar
    60    50    53    1
    61    49    58    1
    62    58    59    1
    63    59    60    1
    64    59    61    1
