@<TRIPOS>MOLECULE
mol_data/noopt/geoms/mol2/13il13il.out
 32 33 0 0 0
SMALL
GASTEIGER

@<TRIPOS>ATOM
      1 C           1.1215   -0.3259    0.0002 C.ar    1  LIG1        0.0087
      2 C           0.7176    0.9721   -0.0005 C.ar    1  LIG1        0.0092
      3 C          -0.7144    0.9744    0.0003 C.ar    1  LIG1        0.1495
      4 C          -1.1226   -0.3223   -0.0003 C.ar    1  LIG1        0.1057
      5 N          -0.0018   -1.1217    0.0001 N.ar    1  LIG1       -0.3563
      6 H          -0.0034   -2.1157   -0.0003 H       1  LIG1        0.1655
      7 H           2.3167   -0.8373    0.0007 H       1  LIG1        0.0811
      8 C           1.4920    2.0167   -0.0003 C.3     1  LIG1       -0.0348
      9 H           1.0026    2.8234    0.5042 H       1  LIG1        0.0279
     10 H           1.7045    2.3034   -1.0091 H       1  LIG1        0.0279
     11 H           2.4062    1.7828    0.5041 H       1  LIG1        0.0279
     12 O          -1.4853    2.0212    0.0010 O.3     1  LIG1       -0.4927
     13 C          -0.6829    3.2049    0.0012 C.3     1  LIG1        0.0789
     14 H          -1.3178    4.0662    0.0016 H       1  LIG1        0.0660
     15 H          -0.0650    3.2168    0.8747 H       1  LIG1        0.0660
     16 H          -0.0654    3.2174   -0.8726 H       1  LIG1        0.0660
     17 C          -2.3194   -0.8299   -0.0001 C.ar    1  LIG1        0.0730
     18 C          -3.5353   -0.2219   -0.0003 C.ar    1  LIG1        0.0180
     19 C          -4.5290   -1.2530    0.0012 C.ar    1  LIG1        0.1408
     20 C          -3.8767   -2.4457    0.0005 C.ar    1  LIG1        0.0447
     21 N          -2.5238   -2.1913    0.0002 N.ar    1  LIG1       -0.3561
     22 H          -1.8081   -2.8811   -0.0004 H       1  LIG1        0.1655
     23 H          -4.3398   -3.6604    0.0012 H       1  LIG1        0.0844
     24 C          -3.7520    1.0602   -0.0003 C.3     1  LIG1       -0.0342
     25 H          -4.6729    1.2662    0.5041 H       1  LIG1        0.0279
     26 H          -3.8116    1.4119   -1.0091 H       1  LIG1        0.0279
     27 H          -2.9500    1.5575    0.5041 H       1  LIG1        0.0279
     28 O          -5.8180   -1.0837    0.0025 O.3     1  LIG1       -0.4933
     29 C          -6.1157    0.3150    0.0029 C.3     1  LIG1        0.0789
     30 H          -7.1766    0.4539    0.0038 H       1  LIG1        0.0660
     31 H          -5.6958    0.7688    0.8763 H       1  LIG1        0.0660
     32 H          -5.6973    0.7690   -0.8710 H       1  LIG1        0.0660
@<TRIPOS>BOND
     1    26    24    1
     2    10     8    1
     3    16    13    1
     4    32    29    1
     5     2     8    1
     6     2     1   ar
     7     2     3   ar
     8    22    21    1
     9    18    24    1
    10    18    17   ar
    11    18    19   ar
    12     4    17    1
    13     4     5   ar
    14     4     3   ar
    15     6     5    1
    16     8    11    1
    17     8     9    1
    18    24    27    1
    19    24    25    1
    20    17    21   ar
    21     5     1   ar
    22    21    20   ar
    23     1     7    1
    24     3    12    1
    25    20    19   ar
    26    20    23    1
    27    12    13    1
    28    13    14    1
    29    13    15    1
    30    19    28    1
    31    28    29    1
    32    29    30    1
    33    29    31    1
