@<TRIPOS>MOLECULE
mol_data/noopt/geoms/mol2/13il13il13il-13il.out
 62 64 0 0 0
SMALL
GASTEIGER

@<TRIPOS>ATOM
      1 C           1.1215   -0.3259    0.0002 C.ar    1  LIG1        0.0087
      2 C           0.7176    0.9721   -0.0005 C.ar    1  LIG1        0.0092
      3 C          -0.7144    0.9744    0.0003 C.ar    1  LIG1        0.1495
      4 C          -1.1226   -0.3223   -0.0003 C.ar    1  LIG1        0.1057
      5 N          -0.0018   -1.1217    0.0001 N.ar    1  LIG1       -0.3563
      6 H          -0.0034   -2.1157   -0.0003 H       1  LIG1        0.1655
      7 H           2.3167   -0.8373    0.0007 H       1  LIG1        0.0811
      8 C           1.4920    2.0167   -0.0003 C.3     1  LIG1       -0.0348
      9 H           1.0026    2.8234    0.5042 H       1  LIG1        0.0279
     10 H           1.7045    2.3034   -1.0091 H       1  LIG1        0.0279
     11 H           2.4062    1.7828    0.5041 H       1  LIG1        0.0279
     12 O          -1.4853    2.0212    0.0010 O.3     1  LIG1       -0.4927
     13 C          -0.6829    3.2049    0.0012 C.3     1  LIG1        0.0789
     14 H          -1.3178    4.0662    0.0016 H       1  LIG1        0.0660
     15 H          -0.0650    3.2168    0.8747 H       1  LIG1        0.0660
     16 H          -0.0654    3.2174   -0.8726 H       1  LIG1        0.0660
     17 C          -2.3194   -0.8299   -0.0001 C.ar    1  LIG1        0.0735
     18 C          -3.5353   -0.2219   -0.0003 C.ar    1  LIG1        0.0187
     19 C          -4.5290   -1.2530    0.0012 C.ar    1  LIG1        0.1502
     20 C          -3.8767   -2.4457    0.0005 C.ar    1  LIG1        0.1062
     21 N          -2.5238   -2.1913    0.0002 N.ar    1  LIG1       -0.3486
     22 H          -1.8081   -2.8811   -0.0004 H       1  LIG1        0.1661
     23 C          -3.7520    1.0602   -0.0003 C.3     1  LIG1       -0.0341
     24 H          -4.6729    1.2662    0.5041 H       1  LIG1        0.0279
     25 H          -3.8116    1.4119   -1.0091 H       1  LIG1        0.0279
     26 H          -2.9500    1.5575    0.5041 H       1  LIG1        0.0279
     27 O          -5.8180   -1.0837    0.0025 O.3     1  LIG1       -0.4927
     28 C          -6.1157    0.3150    0.0029 C.3     1  LIG1        0.0789
     29 H          -7.1766    0.4539    0.0038 H       1  LIG1        0.0660
     30 H          -5.6958    0.7688    0.8763 H       1  LIG1        0.0660
     31 H          -5.6973    0.7690   -0.8710 H       1  LIG1        0.0660
     32 C          -4.3398   -3.6604    0.0012 C.ar    1  LIG1        0.0737
     33 C          -3.6874   -4.8530    0.0012 C.ar    1  LIG1        0.0237
     34 C          -4.6811   -5.8841    0.0032 C.ar    1  LIG1        0.2091
     35 C          -5.8970   -5.2763    0.0027 C.ar    1  LIG1        0.1133
     36 N          -5.6927   -3.9149    0.0019 N.ar    1  LIG1       -0.3484
     37 H          -6.4084   -3.2251    0.0013 H       1  LIG1        0.1661
     38 C          -2.3981   -5.0223    0.0009 C.3     1  LIG1       -0.0340
     39 H          -1.9306   -4.2026    0.5053 H       1  LIG1        0.0279
     40 H          -2.0446   -5.0687   -1.0080 H       1  LIG1        0.0279
     41 H          -2.1582   -5.9351    0.5052 H       1  LIG1        0.0279
     42 O          -4.4643   -7.1660    0.0049 O.3     1  LIG1       -0.2853
     43 C          -5.7139   -7.8613    0.0054 C.3     2  LIG2       -0.0776
     44 H          -5.5350   -8.9163    0.0066 H       1  LIG1        0.0194
     45 H          -6.2710   -7.5931    0.8787 H       1  LIG1        0.0194
     46 H          -6.2707   -7.5950   -0.8686 H       1  LIG1        0.0194
     47 C          -7.0939   -5.7839    0.0038 C.ar    1  LIG1        0.0974
     48 C          -8.3097   -5.1759    0.0043 C.ar    1  LIG1        0.0201
     49 C          -9.3034   -6.2070    0.0067 C.ar    1  LIG1        0.1430
     50 C          -8.6511   -7.3997    0.0060 C.ar    1  LIG1        0.0703
     51 N          -7.2982   -7.1453    0.0047 N.ar    1  LIG1       -0.2494
     52 H          -6.5825   -7.8351    0.0038 H       1  LIG1        0.0194
     53 H          -9.1142   -8.6144    0.0073 H       1  LIG1        0.0867
     54 C          -8.5265   -3.8938    0.0041 C.3     1  LIG1       -0.0341
     55 H          -9.4474   -3.6877    0.5085 H       1  LIG1        0.0279
     56 H          -8.5860   -3.5423   -1.0048 H       1  LIG1        0.0279
     57 H          -7.7245   -3.3965    0.5084 H       1  LIG1        0.0279
     58 O         -10.5924   -6.0377    0.0089 O.3     1  LIG1       -0.4933
     59 C         -10.8901   -4.6390    0.0096 C.3     1  LIG1        0.0789
     60 H         -11.9510   -4.5001    0.0111 H       1  LIG1        0.0660
     61 H         -10.4697   -4.1853    0.8827 H       1  LIG1        0.0660
     62 H         -10.4723   -4.1850   -0.8646 H       1  LIG1        0.0660
@<TRIPOS>BOND
     1    25    23    1
     2    10     8    1
     3    40    38    1
     4    56    54    1
     5    16    13    1
     6    31    28    1
     7    46    43    1
     8    62    59    1
     9     2     8    1
    10     2     1   ar
    11     2     3   ar
    12    22    21    1
    13    18    23    1
    14    18    17   ar
    15    18    19   ar
    16     8    11    1
    17     8     9    1
    18     6     5    1
    19     4    17    1
    20     4     5   ar
    21     4     3   ar
    22    23    26    1
    23    23    24    1
    24    17    21   ar
    25     5     1   ar
    26    21    20   ar
    27     1     7    1
    28     3    12    1
    29    20    19   ar
    30    20    32    1
    31    38    33    1
    32    38    41    1
    33    38    39    1
    34    12    13    1
    35    33    32   ar
    36    33    34   ar
    37    19    27    1
    38    13    14    1
    39    13    15    1
    40    32    36   ar
    41    37    36    1
    42    36    35   ar
    43    27    28    1
    44    35    34   ar
    45    35    47    1
    46    28    29    1
    47    28    30    1
    48    34    42    1
    49    52    43    1
    50    47    48   ar
    51    47    51   ar
    52    54    48    1
    53    54    57    1
    54    54    55    1
    55    48    49   ar
    56    51    50   ar
    57    43    44    1
    58    43    45    1
    59    50    49   ar
    60    50    53    1
    61    49    58    1
    62    58    59    1
    63    59    60    1
    64    59    61    1
