@<TRIPOS>MOLECULE
mol_data/noopt/geoms/mol2/13il13de(300)4fd(30)12fl(100).out
 52 55 0 0 0
SMALL
GASTEIGER

@<TRIPOS>ATOM
      1 C           1.1215   -0.3259    0.0002 C.ar    1  LIG1        0.0087
      2 C           0.7176    0.9721   -0.0005 C.ar    1  LIG1        0.0092
      3 C          -0.7144    0.9744    0.0003 C.ar    1  LIG1        0.1496
      4 C          -1.1226   -0.3223   -0.0003 C.ar    1  LIG1        0.1067
      5 N          -0.0018   -1.1217    0.0001 N.ar    1  LIG1       -0.3563
      6 H          -0.0034   -2.1157   -0.0003 H       1  LIG1        0.1655
      7 H           2.3167   -0.8373    0.0007 H       1  LIG1        0.0811
      8 C           1.4920    2.0167   -0.0003 C.3     1  LIG1       -0.0348
      9 H           1.0026    2.8234    0.5042 H       1  LIG1        0.0279
     10 H           1.7045    2.3034   -1.0091 H       1  LIG1        0.0279
     11 H           2.4062    1.7828    0.5041 H       1  LIG1        0.0279
     12 O          -1.4853    2.0212    0.0010 O.3     1  LIG1       -0.4927
     13 C          -0.6829    3.2049    0.0012 C.3     1  LIG1        0.0789
     14 H          -1.3178    4.0662    0.0016 H       1  LIG1        0.0660
     15 H          -0.0650    3.2168    0.8747 H       1  LIG1        0.0660
     16 H          -0.0654    3.2174   -0.8726 H       1  LIG1        0.0660
     17 C          -2.3194   -0.8299   -0.0001 C.ar    1  LIG1        0.0857
     18 C          -3.3460   -0.6685   -0.8764 C.ar    1  LIG1        0.0945
     19 C          -4.4428   -1.4564   -0.4001 C.ar    1  LIG1        0.0680
     20 C          -4.0376   -2.0661    0.7454 C.ar    1  LIG1        0.0674
     21 N          -2.7384   -1.6849    0.9942 N.ar    1  LIG1       -0.3508
     22 H          -2.1897   -1.9806    1.7685 H       1  LIG1        0.1660
     23 N          -3.3188    0.7173   -2.8926 N.1     1  LIG1       -0.1908
     24 C          -3.3316    0.0678   -1.9477 C.1     1  LIG1        0.1026
     25 C          -5.6116   -1.5706   -0.9577 C.1     1  LIG1       -0.0662
     26 C          -6.6916   -1.6761   -1.4729 C.1     1  LIG1       -0.1138
     27 H          -7.6536   -1.7701   -1.9318 H       1  LIG1        0.1232
     28 C          -5.6175   -2.3664    2.4535 C.ar    1  LIG1        0.1267
     29 C          -6.2770   -3.2845    3.2934 C.ar    1  LIG1       -0.0075
     30 C          -4.6722   -2.8759    1.5399 C.ar    1  LIG1        0.0422
     31 C          -6.0092   -4.6500    3.2279 C.ar    1  LIG1        0.0418
     32 H          -7.0100   -2.9127    4.0058 H       1  LIG1        0.0662
     33 C          -4.4045   -4.2390    1.4741 C.ar    1  LIG1       -0.0310
     34 C          -5.0704   -5.1352    2.3166 C.ar    1  LIG1        0.0634
     35 H          -3.6712   -4.6073    0.7612 H       1  LIG1        0.0638
     36 O          -5.9100   -1.1043    2.5609 O.3     1  LIG1       -0.5061
     37 H          -6.8637   -0.9975    2.5874 H       1  LIG1        0.2922
     38 N          -4.5914   -7.5313    2.1926 N.1     1  LIG1       -0.1908
     39 C          -4.8159   -6.4084    2.2507 C.1     1  LIG1        0.0999
     40 C          -6.6367   -5.4695    4.0183 C.ar    1  LIG1        0.1812
     41 C          -6.6092   -5.7476    5.3692 C.ar    1  LIG1        0.2054
     42 C          -7.5839   -6.7939    5.5972 C.ar    1  LIG1        0.2001
     43 C          -8.1427   -7.0859    4.3699 C.ar    1  LIG1        0.1379
     44 O          -7.5750   -6.2822    3.3806 O.2     1  LIG1       -0.4553
     45 H          -9.0484   -7.9122    3.9376 H       1  LIG1        0.1069
     46 O          -5.8648   -5.1946    6.2804 O.3     1  LIG1       -0.5008
     47 H          -6.2210   -4.3319    6.5050 H       1  LIG1        0.2924
     48 O          -7.8593   -7.3355    6.7466 O.3     1  LIG1       -0.4888
     49 C          -9.1620   -6.9233    7.1685 C.3     1  LIG1        0.0791
     50 H          -9.3883   -7.3693    8.1144 H       1  LIG1        0.0660
     51 H          -9.1861   -5.8576    7.2618 H       1  LIG1        0.0660
     52 H          -9.8863   -7.2344    6.4450 H       1  LIG1        0.0660
@<TRIPOS>BOND
     1    23    24    3
     2    24    18    1
     3    27    26    1
     4    26    25    3
     5    10     8    1
     6    25    19    1
     7    18    19   ar
     8    18    17   ar
     9    16    13    1
    10    19    20   ar
    11     2     8    1
    12     2     1   ar
    13     2     3   ar
    14     4    17    1
    15     4     5   ar
    16     4     3   ar
    17     6     5    1
    18     8    11    1
    19     8     9    1
    20    17    21   ar
    21     5     1   ar
    22     1     7    1
    23     3    12    1
    24    12    13    1
    25    13    14    1
    26    13    15    1
    27    20    21   ar
    28    20    30    1
    29    35    33    1
    30    21    22    1
    31    33    30   ar
    32    33    34   ar
    33    30    28   ar
    34    38    39    3
    35    39    34    1
    36    34    31   ar
    37    28    36    1
    38    28    29   ar
    39    36    37    1
    40    31    29   ar
    41    31    40    1
    42    29    32    1
    43    44    40   ar
    44    44    43   ar
    45    45    43    1
    46    40    41   ar
    47    43    42   ar
    48    41    42   ar
    49    41    46    1
    50    42    48    1
    51    46    47    1
    52    52    49    1
    53    48    49    1
    54    49    51    1
    55    49    50    1
