@<TRIPOS>MOLECULE
mol_data/noopt/geoms/mol2/13il13il-.out
 32 33 0 0 0
SMALL
GASTEIGER

@<TRIPOS>ATOM
      1 C           1.1215   -0.3259    0.0002 C.ar    1  LIG1        0.0087
      2 C           0.7176    0.9721   -0.0005 C.ar    1  LIG1        0.0092
      3 C          -0.7144    0.9744    0.0003 C.ar    1  LIG1        0.1495
      4 C          -1.1226   -0.3223   -0.0003 C.ar    1  LIG1        0.1057
      5 N          -0.0018   -1.1217    0.0001 N.ar    1  LIG1       -0.3563
      6 H          -0.0034   -2.1157   -0.0003 H       1  LIG1        0.1655
      7 H           2.3167   -0.8373    0.0007 H       1  LIG1        0.0811
      8 C           1.4920    2.0167   -0.0003 C.3     1  LIG1       -0.0348
      9 H           1.0026    2.8234    0.5042 H       1  LIG1        0.0279
     10 H           1.7045    2.3034   -1.0091 H       1  LIG1        0.0279
     11 H           2.4062    1.7828    0.5041 H       1  LIG1        0.0279
     12 O          -1.4853    2.0212    0.0010 O.3     1  LIG1       -0.4927
     13 C          -0.6829    3.2049    0.0012 C.3     1  LIG1        0.0789
     14 H          -1.3178    4.0662    0.0016 H       1  LIG1        0.0660
     15 H          -0.0650    3.2168    0.8747 H       1  LIG1        0.0660
     16 H          -0.0654    3.2174   -0.8726 H       1  LIG1        0.0660
     17 C          -2.3194   -0.8299   -0.0001 C.ar    1  LIG1        0.0730
     18 C          -2.7274   -2.1266   -0.0005 C.ar    1  LIG1        0.0180
     19 C          -4.1594   -2.1244    0.0011 C.ar    1  LIG1        0.1408
     20 C          -4.5635   -0.8264    0.0006 C.ar    1  LIG1        0.0447
     21 N          -3.4402   -0.0305    0.0003 N.ar    1  LIG1       -0.3561
     22 H          -3.4386    0.9635   -0.0001 H       1  LIG1        0.1655
     23 H          -5.7587   -0.3150    0.0014 H       1  LIG1        0.0844
     24 C          -1.9564   -3.1736   -0.0006 C.3     1  LIG1       -0.0342
     25 H          -1.0413   -2.9428    0.5038 H       1  LIG1        0.0279
     26 H          -1.7448   -3.4607   -1.0095 H       1  LIG1        0.0279
     27 H          -2.4483   -3.9789    0.5037 H       1  LIG1        0.0279
     28 O          -4.9337   -3.1687    0.0023 O.3     1  LIG1       -0.4933
     29 C          -6.3008   -2.7494    0.0027 C.3     1  LIG1        0.0789
     30 H          -6.9376   -3.6092    0.0035 H       1  LIG1        0.0660
     31 H          -6.4935   -2.1620    0.8761 H       1  LIG1        0.0660
     32 H          -6.4943   -2.1631   -0.8712 H       1  LIG1        0.0660
@<TRIPOS>BOND
     1    26    24    1
     2    10     8    1
     3    16    13    1
     4    32    29    1
     5    24    18    1
     6    24    27    1
     7    24    25    1
     8     2     8    1
     9     2     1   ar
    10     2     3   ar
    11    18    17   ar
    12    18    19   ar
    13     4    17    1
    14     4     5   ar
    15     4     3   ar
    16     6     5    1
    17     8    11    1
    18     8     9    1
    19    22    21    1
    20    17    21   ar
    21     5     1   ar
    22     1     7    1
    23     3    12    1
    24    21    20   ar
    25    20    19   ar
    26    20    23    1
    27    12    13    1
    28    19    28    1
    29    13    14    1
    30    13    15    1
    31    28    29    1
    32    29    30    1
    33    29    31    1
