@<TRIPOS>MOLECULE
mol_data/noopt/geoms/mol2/13il13il13il-13il-.out
 62 62 0 0 0
SMALL
GASTEIGER

@<TRIPOS>ATOM
      1 C           1.1215   -0.3259    0.0002 C.ar    1  LIG1        0.0087
      2 C           0.7176    0.9721   -0.0005 C.ar    1  LIG1        0.0092
      3 C          -0.7144    0.9744    0.0003 C.ar    1  LIG1        0.1495
      4 C          -1.1226   -0.3223   -0.0003 C.ar    1  LIG1        0.1057
      5 N          -0.0018   -1.1217    0.0001 N.ar    1  LIG1       -0.3563
      6 H          -0.0034   -2.1157   -0.0003 H       1  LIG1        0.1655
      7 H           2.3167   -0.8373    0.0007 H       1  LIG1        0.0811
      8 C           1.4920    2.0167   -0.0003 C.3     1  LIG1       -0.0348
      9 H           1.0026    2.8234    0.5042 H       1  LIG1        0.0279
     10 H           1.7045    2.3034   -1.0091 H       1  LIG1        0.0279
     11 H           2.4062    1.7828    0.5041 H       1  LIG1        0.0279
     12 O          -1.4853    2.0212    0.0010 O.3     1  LIG1       -0.4927
     13 C          -0.6829    3.2049    0.0012 C.3     1  LIG1        0.0789
     14 H          -1.3178    4.0662    0.0016 H       1  LIG1        0.0660
     15 H          -0.0650    3.2168    0.8747 H       1  LIG1        0.0660
     16 H          -0.0654    3.2174   -0.8726 H       1  LIG1        0.0660
     17 C          -2.3194   -0.8299   -0.0001 C.ar    1  LIG1        0.0735
     18 C          -3.5353   -0.2219   -0.0003 C.ar    1  LIG1        0.0187
     19 C          -4.5290   -1.2530    0.0012 C.ar    1  LIG1        0.1502
     20 C          -3.8767   -2.4457    0.0005 C.ar    1  LIG1        0.1062
     21 N          -2.5238   -2.1913    0.0002 N.ar    1  LIG1       -0.3486
     22 H          -1.8081   -2.8811   -0.0004 H       1  LIG1        0.1661
     23 C          -3.7520    1.0602   -0.0003 C.3     1  LIG1       -0.0341
     24 H          -4.6729    1.2662    0.5041 H       1  LIG1        0.0279
     25 H          -3.8116    1.4119   -1.0091 H       1  LIG1        0.0279
     26 H          -2.9500    1.5575    0.5041 H       1  LIG1        0.0279
     27 O          -5.8180   -1.0837    0.0025 O.3     1  LIG1       -0.4927
     28 C          -6.1157    0.3150    0.0029 C.3     1  LIG1        0.0789
     29 H          -7.1766    0.4539    0.0038 H       1  LIG1        0.0660
     30 H          -5.6958    0.7688    0.8763 H       1  LIG1        0.0660
     31 H          -5.6973    0.7690   -0.8710 H       1  LIG1        0.0660
     32 C          -4.3398   -3.6604    0.0012 C.ar    1  LIG1        0.0737
     33 C          -3.6874   -4.8530    0.0012 C.ar    1  LIG1        0.0237
     34 C          -4.6811   -5.8841    0.0032 C.ar    1  LIG1        0.2090
     35 C          -5.8970   -5.2763    0.0027 C.ar    1  LIG1        0.1116
     36 N          -5.6927   -3.9149    0.0019 N.ar    1  LIG1       -0.3485
     37 H          -6.4084   -3.2251    0.0013 H       1  LIG1        0.1661
     38 C          -2.3981   -5.0223    0.0009 C.3     1  LIG1       -0.0340
     39 H          -1.9306   -4.2026    0.5053 H       1  LIG1        0.0279
     40 H          -2.0446   -5.0687   -1.0080 H       1  LIG1        0.0279
     41 H          -2.1582   -5.9351    0.5052 H       1  LIG1        0.0279
     42 O          -4.4643   -7.1660    0.0049 O.3     1  LIG1       -0.2853
     43 C          -5.7139   -7.8613    0.0054 C.3     1  LIG1       -0.0619
     44 H          -5.5350   -8.9163    0.0066 H       1  LIG1        0.0233
     45 H          -6.2710   -7.5931    0.8787 H       1  LIG1        0.0233
     46 H          -6.2707   -7.5950   -0.8686 H       1  LIG1        0.0233
     47 C          -7.0939   -5.7839    0.0038 C.ar    1  LIG1        0.0783
     48 C          -7.5019   -7.0806    0.0041 C.ar    1  LIG1        0.0562
     49 C          -8.9339   -7.0784    0.0067 C.ar    1  LIG1        0.1458
     50 C          -9.3380   -5.7804    0.0061 C.ar    1  LIG1        0.0450
     51 N          -8.2146   -4.9846    0.0048 N.ar    1  LIG1       -0.3559
     52 H          -8.2131   -3.9906    0.0040 H       1  LIG1        0.1655
     53 H         -10.5331   -5.2690    0.0075 H       1  LIG1        0.0844
     54 C          -6.7308   -8.1276    0.0038 C.3     1  LIG1       -0.0382
     55 H          -5.8157   -7.8969    0.5081 H       2  UNK2        0.0000
     56 H          -6.5194   -8.4146   -1.0052 H       3  UNK3        0.0000
     57 H          -7.2227   -8.9330    0.5080 H       1  LIG1        0.0303
     58 O          -9.7081   -8.1227    0.0087 O.3     1  LIG1       -0.4930
     59 C         -11.0752   -7.7034    0.0094 C.3     1  LIG1        0.0789
     60 H         -11.7121   -8.5632    0.0109 H       1  LIG1        0.0660
     61 H         -11.2676   -7.1156    0.8826 H       1  LIG1        0.0660
     62 H         -11.2690   -7.1175   -0.8647 H       1  LIG1        0.0660
@<TRIPOS>BOND
     1    25    23    1
     2    10     8    1
     3    40    38    1
     4    16    13    1
     5    31    28    1
     6    46    43    1
     7    62    59    1
     8     2     8    1
     9     2     1   ar
    10     2     3   ar
    11    22    21    1
    12    18    23    1
    13    18    17   ar
    14    18    19   ar
    15     8    11    1
    16     8     9    1
    17     6     5    1
    18     4    17    1
    19     4     5   ar
    20     4     3   ar
    21    23    26    1
    22    23    24    1
    23    17    21   ar
    24     5     1   ar
    25    21    20   ar
    26     1     7    1
    27     3    12    1
    28    20    19   ar
    29    20    32    1
    30    38    33    1
    31    38    41    1
    32    38    39    1
    33    12    13    1
    34    33    32   ar
    35    33    34   ar
    36    19    27    1
    37    13    14    1
    38    13    15    1
    39    32    36   ar
    40    37    36    1
    41    36    35   ar
    42    27    28    1
    43    35    34   ar
    44    35    47    1
    45    28    29    1
    46    28    30    1
    47    34    42    1
    48    54    43    1
    49    54    57    1
    50    47    48   ar
    51    47    51   ar
    52    52    51    1
    53    48    49   ar
    54    51    50   ar
    55    43    44    1
    56    43    45    1
    57    50    49   ar
    58    50    53    1
    59    49    58    1
    60    58    59    1
    61    59    60    1
    62    59    61    1
