@<TRIPOS>MOLECULE
mol_data/noopt/geoms/mol2/13il13il-13il.out
 47 48 0 0 0
SMALL
GASTEIGER

@<TRIPOS>ATOM
      1 C           1.1215   -0.3259    0.0002 C.ar    1  LIG1        0.0087
      2 C           0.7176    0.9721   -0.0005 C.ar    1  LIG1        0.0092
      3 C          -0.7144    0.9744    0.0003 C.ar    1  LIG1        0.1495
      4 C          -1.1226   -0.3223   -0.0003 C.ar    1  LIG1        0.1057
      5 N          -0.0018   -1.1217    0.0001 N.ar    1  LIG1       -0.3563
      6 H          -0.0034   -2.1157   -0.0003 H       1  LIG1        0.1655
      7 H           2.3167   -0.8373    0.0007 H       1  LIG1        0.0811
      8 C           1.4920    2.0167   -0.0003 C.3     1  LIG1       -0.0348
      9 H           1.0026    2.8234    0.5042 H       1  LIG1        0.0279
     10 H           1.7045    2.3034   -1.0091 H       1  LIG1        0.0279
     11 H           2.4062    1.7828    0.5041 H       1  LIG1        0.0279
     12 O          -1.4853    2.0212    0.0010 O.3     1  LIG1       -0.4927
     13 C          -0.6829    3.2049    0.0012 C.3     1  LIG1        0.0789
     14 H          -1.3178    4.0662    0.0016 H       1  LIG1        0.0660
     15 H          -0.0650    3.2168    0.8747 H       1  LIG1        0.0660
     16 H          -0.0654    3.2174   -0.8726 H       1  LIG1        0.0660
     17 C          -2.3194   -0.8299   -0.0001 C.ar    1  LIG1        0.0737
     18 C          -2.7274   -2.1266   -0.0005 C.ar    1  LIG1        0.0237
     19 C          -4.1594   -2.1244    0.0011 C.ar    1  LIG1        0.2091
     20 C          -4.5635   -0.8264    0.0006 C.ar    1  LIG1        0.1133
     21 N          -3.4402   -0.0305    0.0003 N.ar    1  LIG1       -0.3484
     22 H          -3.4386    0.9635   -0.0001 H       1  LIG1        0.1661
     23 C          -1.9564   -3.1736   -0.0006 C.3     1  LIG1       -0.0340
     24 H          -1.0413   -2.9428    0.5038 H       1  LIG1        0.0279
     25 H          -1.7448   -3.4607   -1.0095 H       1  LIG1        0.0279
     26 H          -2.4483   -3.9789    0.5037 H       1  LIG1        0.0279
     27 O          -4.9337   -3.1687    0.0023 O.3     1  LIG1       -0.2853
     28 C          -6.3008   -2.7494    0.0027 C.3     2  LIG2       -0.0776
     29 H          -6.9376   -3.6092    0.0035 H       1  LIG1        0.0194
     30 H          -6.4935   -2.1620    0.8761 H       1  LIG1        0.0194
     31 H          -6.4943   -2.1631   -0.8712 H       1  LIG1        0.0194
     32 C          -5.7587   -0.3150    0.0014 C.ar    1  LIG1        0.0974
     33 C          -6.1626    0.9830    0.0016 C.ar    1  LIG1        0.0201
     34 C          -7.5946    0.9853    0.0038 C.ar    1  LIG1        0.1430
     35 C          -8.0028   -0.3114    0.0030 C.ar    1  LIG1        0.0703
     36 N          -6.8820   -1.1108    0.0021 N.ar    1  LIG1       -0.2494
     37 H          -6.8836   -2.1048    0.0013 H       1  LIG1        0.0194
     38 H          -9.1996   -0.8190    0.0041 H       1  LIG1        0.0867
     39 C          -5.3882    2.0276    0.0015 C.3     1  LIG1       -0.0341
     40 H          -5.8776    2.8344    0.5059 H       1  LIG1        0.0279
     41 H          -5.1759    2.3141   -1.0073 H       1  LIG1        0.0279
     42 H          -4.4739    1.7938    0.5059 H       1  LIG1        0.0279
     43 O          -8.3655    2.0321    0.0056 O.3     1  LIG1       -0.4933
     44 C          -7.5631    3.2158    0.0062 C.3     1  LIG1        0.0789
     45 H          -8.1980    4.0771    0.0075 H       1  LIG1        0.0660
     46 H          -6.9448    3.2271    0.8794 H       1  LIG1        0.0660
     47 H          -6.9461    3.2289   -0.8679 H       1  LIG1        0.0660
@<TRIPOS>BOND
     1    25    23    1
     2    10     8    1
     3    41    39    1
     4    16    13    1
     5    31    28    1
     6    47    44    1
     7    23    18    1
     8    23    26    1
     9    23    24    1
    10     2     8    1
    11     2     1   ar
    12     2     3   ar
    13    18    17   ar
    14    18    19   ar
    15     4    17    1
    16     4     5   ar
    17     4     3   ar
    18     6     5    1
    19     8    11    1
    20     8     9    1
    21    22    21    1
    22    17    21   ar
    23     5     1   ar
    24     1     7    1
    25     3    12    1
    26    21    20   ar
    27    20    19   ar
    28    20    32    1
    29    12    13    1
    30    19    27    1
    31    13    14    1
    32    13    15    1
    33    37    28    1
    34    32    33   ar
    35    32    36   ar
    36    39    33    1
    37    39    42    1
    38    39    40    1
    39    33    34   ar
    40    36    35   ar
    41    28    29    1
    42    28    30    1
    43    35    34   ar
    44    35    38    1
    45    34    43    1
    46    43    44    1
    47    44    45    1
    48    44    46    1
