@<TRIPOS>MOLECULE
mol_data/noopt/geoms/mol2/13il13il-13il-13il-.out
 62 59 0 0 0
SMALL
GASTEIGER

@<TRIPOS>ATOM
      1 C           1.1215   -0.3259    0.0002 C.ar    1  LIG1        0.0087
      2 C           0.7176    0.9721   -0.0005 C.ar    1  LIG1        0.0092
      3 C          -0.7144    0.9744    0.0003 C.ar    1  LIG1        0.1495
      4 C          -1.1226   -0.3223   -0.0003 C.ar    1  LIG1        0.1057
      5 N          -0.0018   -1.1217    0.0001 N.ar    1  LIG1       -0.3563
      6 H          -0.0034   -2.1157   -0.0003 H       1  LIG1        0.1655
      7 H           2.3167   -0.8373    0.0007 H       1  LIG1        0.0811
      8 C           1.4920    2.0167   -0.0003 C.3     1  LIG1       -0.0348
      9 H           1.0026    2.8234    0.5042 H       1  LIG1        0.0279
     10 H           1.7045    2.3034   -1.0091 H       1  LIG1        0.0279
     11 H           2.4062    1.7828    0.5041 H       1  LIG1        0.0279
     12 O          -1.4853    2.0212    0.0010 O.3     1  LIG1       -0.4927
     13 C          -0.6829    3.2049    0.0012 C.3     1  LIG1        0.0789
     14 H          -1.3178    4.0662    0.0016 H       1  LIG1        0.0660
     15 H          -0.0650    3.2168    0.8747 H       1  LIG1        0.0660
     16 H          -0.0654    3.2174   -0.8726 H       1  LIG1        0.0660
     17 C          -2.3194   -0.8299   -0.0001 C.ar    1  LIG1        0.0737
     18 C          -2.7274   -2.1266   -0.0005 C.ar    1  LIG1        0.0237
     19 C          -4.1594   -2.1244    0.0011 C.ar    1  LIG1        0.2090
     20 C          -4.5635   -0.8264    0.0006 C.ar    1  LIG1        0.1116
     21 N          -3.4402   -0.0305    0.0003 N.ar    1  LIG1       -0.3485
     22 H          -3.4386    0.9635   -0.0001 H       1  LIG1        0.1661
     23 C          -1.9564   -3.1736   -0.0006 C.3     1  LIG1       -0.0340
     24 H          -1.0413   -2.9428    0.5038 H       1  LIG1        0.0279
     25 H          -1.7448   -3.4607   -1.0095 H       1  LIG1        0.0279
     26 H          -2.4483   -3.9789    0.5037 H       1  LIG1        0.0279
     27 O          -4.9337   -3.1687    0.0023 O.3     1  LIG1       -0.2853
     28 C          -6.3008   -2.7494    0.0027 C.3     1  LIG1       -0.0619
     29 H          -6.9376   -3.6092    0.0035 H       1  LIG1        0.0233
     30 H          -6.4935   -2.1620    0.8761 H       1  LIG1        0.0233
     31 H          -6.4943   -2.1631   -0.8712 H       1  LIG1        0.0233
     32 C          -5.7587   -0.3150    0.0014 C.ar    1  LIG1        0.0789
     33 C          -6.9765   -0.9191    0.0015 C.ar    1  LIG1        0.0621
     34 C          -7.9670    0.1151    0.0037 C.ar    1  LIG1        0.2140
     35 C          -7.3109    1.3057    0.0031 C.ar    1  LIG1        0.1120
     36 N          -5.9587    1.0470    0.0022 N.ar    1  LIG1       -0.3482
     37 H          -5.2408    1.7345    0.0016 H       1  LIG1        0.1661
     38 C          -7.1973   -2.2005    0.0012 C.3     1  LIG1       -0.0382
     39 H          -6.3970   -2.7005    0.5056 H       2  UNK2        0.0000
     40 H          -7.2578   -2.5518   -1.0077 H       3  UNK3        0.0000
     41 H          -8.1189   -2.4037    0.5055 H       1  LIG1        0.0303
     42 O          -9.2565   -0.0501    0.0054 O.3     1  LIG1       -0.2849
     43 C          -9.9012    1.2263    0.0060 C.3     2  UNK2       -0.0619
     44 H         -10.9624    1.0899    0.0073 H       2  UNK2        0.0233
     45 H          -9.6107    1.7723    0.8793 H       2  UNK2        0.0233
     46 H          -9.6128    1.7720   -0.8680 H       2  UNK2        0.0233
     47 C          -7.7701    2.5219    0.0044 C.ar    1  LIG1        0.0783
     48 C          -9.0494    2.9816    0.0047 C.ar    1  LIG1        0.0562
     49 C          -8.9898    4.4124    0.0074 C.ar    1  LIG1        0.1458
     50 C          -7.6767    4.7641    0.0068 C.ar    1  LIG1        0.0450
     51 N          -6.9265    3.6098    0.0054 N.ar    1  LIG1       -0.3559
     52 H          -5.9333    3.5684    0.0046 H       1  LIG1        0.1655
     53 H          -7.1178    5.9378    0.0083 H       1  LIG1        0.0844
     54 C         -10.1265    2.2531    0.0043 C.3     2  UNK2       -0.0382
     55 H          -9.9326    1.3295    0.5087 H       4  UNK4        0.0000
     56 H         -10.4217    2.0534   -1.0046 H       5  UNK5        0.0000
     57 H         -10.9115    2.7769    0.5086 H       2  UNK2        0.0303
     58 O         -10.0023    5.2278    0.0095 O.3     1  LIG1       -0.4930
     59 C          -9.5285    6.5770    0.0102 C.3     1  LIG1        0.0789
     60 H         -10.3621    7.2478    0.0117 H       1  LIG1        0.0660
     61 H          -8.9334    6.7456    0.8833 H       1  LIG1        0.0660
     62 H          -8.9354    6.7472   -0.8640 H       1  LIG1        0.0660
@<TRIPOS>BOND
     1    25    23    1
     2    10     8    1
     3    16    13    1
     4    31    28    1
     5    46    43    1
     6    62    59    1
     7    23    18    1
     8    23    26    1
     9    23    24    1
    10     2     8    1
    11     2     1   ar
    12     2     3   ar
    13    18    17   ar
    14    18    19   ar
    15     8    11    1
    16     8     9    1
    17     6     5    1
    18     4    17    1
    19     4     5   ar
    20     4     3   ar
    21    22    21    1
    22    17    21   ar
    23     5     1   ar
    24     1     7    1
    25     3    12    1
    26    21    20   ar
    27    20    19   ar
    28    20    32    1
    29    12    13    1
    30    19    27    1
    31    13    14    1
    32    13    15    1
    33    38    28    1
    34    38    41    1
    35    32    33   ar
    36    32    36   ar
    37    33    34   ar
    38    37    36    1
    39    36    35   ar
    40    28    29    1
    41    28    30    1
    42    35    34   ar
    43    35    47    1
    44    34    42    1
    45    54    43    1
    46    54    57    1
    47    47    48   ar
    48    47    51   ar
    49    52    51    1
    50    48    49   ar
    51    51    50   ar
    52    43    44    1
    53    43    45    1
    54    50    49   ar
    55    50    53    1
    56    49    58    1
    57    58    59    1
    58    59    60    1
    59    59    61    1
