@<TRIPOS>MOLECULE
mol_data/noopt/geoms/mol2/13la13la13la13la-.out
 50 51 0 0 0
SMALL
GASTEIGER

@<TRIPOS>ATOM
      1 C           1.1215   -0.3259    0.0002 C.ar    1  LIG1        0.0450
      2 C           0.7176    0.9721   -0.0005 C.ar    1  LIG1        0.1458
      3 C          -0.7144    0.9744    0.0003 C.ar    1  LIG1        0.0562
      4 C          -1.1226   -0.3223   -0.0003 C.ar    1  LIG1        0.0783
      5 N          -0.0018   -1.1217    0.0001 N.ar    1  LIG1       -0.3559
      6 H          -0.0034   -2.1157   -0.0003 H       1  LIG1        0.1655
      7 H           2.3167   -0.8373    0.0007 H       1  LIG1        0.0844
      8 O           1.4918    2.0165   -0.0003 O.3     1  LIG1       -0.4930
      9 C           2.8590    1.5971   -0.0003 C.3     1  LIG1        0.0789
     10 H           3.4958    2.4569   -0.0003 H       1  LIG1        0.0660
     11 H           3.0520    1.0102    0.8734 H       1  LIG1        0.0660
     12 H           3.0520    1.0102   -0.8739 H       1  LIG1        0.0660
     13 H          -1.4853    2.0212    0.0010 H       1  LIG1        0.0194
     14 C          -2.3194   -0.8299   -0.0001 C.ar    1  LIG1        0.1120
     15 C          -3.5353   -0.2219   -0.0003 C.ar    1  LIG1        0.2140
     16 C          -4.5290   -1.2530    0.0012 C.ar    1  LIG1        0.0621
     17 C          -3.8767   -2.4457    0.0005 C.ar    1  LIG1        0.0789
     18 N          -2.5238   -2.1913    0.0002 N.ar    1  LIG1       -0.3482
     19 H          -1.8081   -2.8811   -0.0004 H       1  LIG1        0.1661
     20 O          -3.7520    1.0599   -0.0003 O.3     1  LIG1       -0.2849
     21 C          -2.5024    1.7552   -0.0003 C.3     2  LIG2       -0.0776
     22 H          -2.6813    2.8102   -0.0005 H       1  LIG1        0.0194
     23 H          -1.9455    1.4880    0.8734 H       1  LIG1        0.0194
     24 H          -1.9455    1.4878   -0.8739 H       1  LIG1        0.0194
     25 H          -5.8179   -1.0837    0.0025 H       2  LIG2        0.0194
     26 C          -4.3398   -3.6604    0.0012 C.ar    1  LIG1        0.1113
     27 C          -5.6206   -4.1160    0.0013 C.ar    1  LIG1        0.2061
     28 C          -5.5655   -5.5470    0.0033 C.ar    1  LIG1        0.0127
     29 C          -4.2535   -5.9029    0.0026 C.ar    1  LIG1        0.0707
     30 N          -3.4996   -4.7510    0.0018 N.ar    1  LIG1       -0.3487
     31 H          -2.5064   -4.7127    0.0010 H       1  LIG1        0.1661
     32 O          -6.6951   -3.3843    0.0012 O.3     1  LIG1       -0.2856
     33 C          -6.3308   -2.0014    0.0011 C.3     3  LIG3       -0.0776
     34 H          -7.2155   -1.3995    0.0009 H       2  LIG2        0.0194
     35 H          -5.7524   -1.7849    0.8749 H       2  LIG2        0.0194
     36 H          -5.7521   -1.7851   -0.8724 H       2  LIG2        0.0194
     37 H          -6.5805   -6.3592    0.0050 H       1  LIG1        0.0678
     38 C          -3.6983   -7.0784    0.0036 C.ar    1  LIG1        0.1052
     39 C          -2.3863   -7.4341    0.0038 C.ar    1  LIG1        0.1467
     40 C          -2.3311   -8.8651    0.0062 C.ar    1  LIG1       -0.0019
     41 C          -3.6119   -9.3208    0.0056 C.ar    1  LIG1        0.0058
     42 N          -4.4521   -8.2303    0.0045 N.ar    1  LIG1       -0.3566
     43 H          -5.4454   -8.2686    0.0038 H       1  LIG1        0.1655
     44 H          -4.0750  -10.5356    0.0070 H       1  LIG1        0.0808
     45 O          -1.3712   -6.6219    0.0035 O.3     1  LIG1       -0.4929
     46 C          -0.1564   -7.3762    0.0033 C.3     1  LIG1        0.0789
     47 H           0.6788   -6.7073    0.0028 H       1  LIG1        0.0660
     48 H          -0.1191   -7.9926    0.8771 H       1  LIG1        0.0660
     49 H          -0.1197   -7.9931   -0.8702 H       1  LIG1        0.0660
     50 H          -1.2566   -9.5968    0.0081 H       1  LIG1        0.0669
@<TRIPOS>BOND
     1    24    21    1
     2    12     9    1
     3    36    33    1
     4    49    46    1
     5     2     8    1
     6     2     1   ar
     7     2     3   ar
     8    22    21    1
     9    19    18    1
    10    21    13    1
    11    21    23    1
    12    15    20    1
    13    15    14   ar
    14    15    16   ar
    15    10     9    1
    16     9     8    1
    17     9    11    1
    18     6     5    1
    19     4    14    1
    20     4     5   ar
    21     4     3   ar
    22    14    18   ar
    23     5     1   ar
    24    18    17   ar
    25     1     7    1
    26    17    16   ar
    27    17    26    1
    28    34    33    1
    29    31    30    1
    30    33    25    1
    31    33    35    1
    32    26    27   ar
    33    26    30   ar
    34    32    27    1
    35    27    28   ar
    36    30    29   ar
    37    29    28   ar
    38    29    38    1
    39    47    46    1
    40    46    45    1
    41    46    48    1
    42    28    37    1
    43    45    39    1
    44    38    39   ar
    45    38    42   ar
    46    43    42    1
    47    39    40   ar
    48    42    41   ar
    49    41    40   ar
    50    41    44    1
    51    40    50    1
