@<TRIPOS>MOLECULE
mol_data/noopt/geoms/mol2/13la13la13la-13la.out
 50 51 0 0 0
SMALL
GASTEIGER

@<TRIPOS>ATOM
      1 C           1.1215   -0.3259    0.0002 C.ar    1  LIG1        0.0450
      2 C           0.7176    0.9721   -0.0005 C.ar    1  LIG1        0.1458
      3 C          -0.7144    0.9744    0.0003 C.ar    1  LIG1        0.0562
      4 C          -1.1226   -0.3223   -0.0003 C.ar    1  LIG1        0.0783
      5 N          -0.0018   -1.1217    0.0001 N.ar    1  LIG1       -0.3559
      6 H          -0.0034   -2.1157   -0.0003 H       1  LIG1        0.1655
      7 H           2.3167   -0.8373    0.0007 H       1  LIG1        0.0844
      8 O           1.4918    2.0165   -0.0003 O.3     1  LIG1       -0.4930
      9 C           2.8590    1.5971   -0.0003 C.3     1  LIG1        0.0789
     10 H           3.4958    2.4569   -0.0003 H       1  LIG1        0.0660
     11 H           3.0520    1.0102    0.8734 H       1  LIG1        0.0660
     12 H           3.0520    1.0102   -0.8739 H       1  LIG1        0.0660
     13 H          -1.4853    2.0212    0.0010 H       1  LIG1        0.0194
     14 C          -2.3194   -0.8299   -0.0001 C.ar    1  LIG1        0.1113
     15 C          -3.5353   -0.2219   -0.0003 C.ar    1  LIG1        0.2061
     16 C          -4.5290   -1.2530    0.0012 C.ar    1  LIG1        0.0127
     17 C          -3.8767   -2.4457    0.0005 C.ar    1  LIG1        0.0728
     18 N          -2.5238   -2.1913    0.0002 N.ar    1  LIG1       -0.3486
     19 H          -1.8081   -2.8811   -0.0004 H       1  LIG1        0.1661
     20 O          -3.7520    1.0599   -0.0003 O.3     1  LIG1       -0.2856
     21 C          -2.5024    1.7552   -0.0003 C.3     2  LIG2       -0.0776
     22 H          -2.6813    2.8102   -0.0005 H       1  LIG1        0.0194
     23 H          -1.9455    1.4880    0.8734 H       1  LIG1        0.0194
     24 H          -1.9455    1.4878   -0.8739 H       1  LIG1        0.0194
     25 H          -5.8179   -1.0837    0.0025 H       1  LIG1        0.0678
     26 C          -4.3398   -3.6604    0.0012 C.ar    1  LIG1        0.1294
     27 C          -3.6874   -4.8530    0.0012 C.ar    1  LIG1        0.1494
     28 C          -4.6811   -5.8841    0.0032 C.ar    1  LIG1        0.0098
     29 C          -5.8970   -5.2763    0.0027 C.ar    1  LIG1        0.0952
     30 N          -5.6927   -3.9149    0.0019 N.ar    1  LIG1       -0.2398
     31 H          -6.4084   -3.2251    0.0013 H       2  LIG2        0.0194
     32 O          -2.3984   -5.0223    0.0009 O.3     1  LIG1       -0.4928
     33 C          -2.1007   -6.4210    0.0008 C.3     1  LIG1        0.0789
     34 H          -1.0397   -6.5599    0.0004 H       1  LIG1        0.0660
     35 H          -2.5195   -6.8749    0.8746 H       1  LIG1        0.0660
     36 H          -2.5201   -6.8748   -0.8727 H       1  LIG1        0.0660
     37 H          -4.4643   -7.1660    0.0049 H       1  LIG1        0.0677
     38 C          -7.0939   -5.7839    0.0038 C.ar    1  LIG1        0.1123
     39 C          -8.3097   -5.1759    0.0043 C.ar    1  LIG1        0.2055
     40 C          -9.3034   -6.2070    0.0067 C.ar    1  LIG1        0.0031
     41 C          -8.6511   -7.3997    0.0060 C.ar    1  LIG1        0.0060
     42 N          -7.2982   -7.1453    0.0047 N.ar    1  LIG1       -0.3564
     43 H          -6.5825   -7.8351    0.0038 H       1  LIG1        0.1655
     44 H          -9.1142   -8.6144    0.0073 H       1  LIG1        0.0808
     45 O          -8.5264   -3.8941    0.0041 O.3     1  LIG1       -0.2856
     46 C          -7.2769   -3.1988    0.0039 C.3     3  LIG3       -0.0776
     47 H          -7.4557   -2.1438    0.0036 H       2  LIG2        0.0194
     48 H          -6.7200   -3.4658    0.8777 H       2  LIG2        0.0194
     49 H          -6.7199   -3.4663   -0.8696 H       2  LIG2        0.0194
     50 H         -10.5924   -6.0377    0.0089 H       1  LIG1        0.0671
@<TRIPOS>BOND
     1    24    21    1
     2    12     9    1
     3    36    33    1
     4    49    46    1
     5     2     8    1
     6     2     1   ar
     7     2     3   ar
     8    22    21    1
     9    19    18    1
    10    21    13    1
    11    21    23    1
    12    15    20    1
    13    15    14   ar
    14    15    16   ar
    15     9    10    1
    16     9     8    1
    17     9    11    1
    18     6     5    1
    19     4    14    1
    20     4     5   ar
    21     4     3   ar
    22    14    18   ar
    23     5     1   ar
    24    18    17   ar
    25     1     7    1
    26    34    33    1
    27    17    16   ar
    28    17    26    1
    29    33    32    1
    30    33    35    1
    31    32    27    1
    32    27    26   ar
    33    27    28   ar
    34    16    25    1
    35    26    30   ar
    36    31    46    1
    37    30    29   ar
    38    29    28   ar
    39    29    38    1
    40    28    37    1
    41    47    46    1
    42    43    42    1
    43    38    39   ar
    44    38    42   ar
    45    46    48    1
    46    45    39    1
    47    39    40   ar
    48    42    41   ar
    49    41    40   ar
    50    41    44    1
    51    40    50    1
