@<TRIPOS>MOLECULE
mol_data/noopt/geoms/mol2/13la13la-13la13la-.out
 50 52 0 0 0
SMALL
GASTEIGER

@<TRIPOS>ATOM
      1 C           1.1215   -0.3259    0.0002 C.ar    1  LIG1        0.0444
      2 C           0.7176    0.9721   -0.0005 C.ar    1  LIG1        0.1379
      3 C          -0.7144    0.9744    0.0003 C.ar    1  LIG1        0.0070
      4 C          -1.1226   -0.3223   -0.0003 C.ar    1  LIG1        0.0721
      5 N          -0.0018   -1.1217    0.0001 N.ar    1  LIG1       -0.3563
      6 H          -0.0034   -2.1157   -0.0003 H       1  LIG1        0.1655
      7 H           2.3167   -0.8373    0.0007 H       1  LIG1        0.0844
      8 O           1.4918    2.0165   -0.0003 O.3     1  LIG1       -0.4936
      9 C           2.8590    1.5971   -0.0003 C.3     1  LIG1        0.0789
     10 H           3.4958    2.4569   -0.0003 H       1  LIG1        0.0660
     11 H           3.0520    1.0102    0.8734 H       1  LIG1        0.0660
     12 H           3.0520    1.0102   -0.8739 H       1  LIG1        0.0660
     13 H          -1.4853    2.0212    0.0010 H       1  LIG1        0.0676
     14 C          -2.3194   -0.8299   -0.0001 C.ar    1  LIG1        0.1294
     15 C          -2.7274   -2.1266   -0.0005 C.ar    1  LIG1        0.1494
     16 C          -4.1594   -2.1244    0.0011 C.ar    1  LIG1        0.0098
     17 C          -4.5635   -0.8264    0.0006 C.ar    1  LIG1        0.0953
     18 N          -3.4402   -0.0305    0.0003 N.ar    1  LIG1       -0.2398
     19 H          -3.4386    0.9635   -0.0001 H       1  LIG1        0.0194
     20 O          -1.9565   -3.1734   -0.0006 O.3     1  LIG1       -0.4928
     21 C          -2.7589   -4.3571   -0.0007 C.3     1  LIG1        0.0789
     22 H          -2.1240   -5.2184   -0.0010 H       1  LIG1        0.0660
     23 H          -3.3764   -4.3695    0.8731 H       1  LIG1        0.0660
     24 H          -3.3767   -4.3691   -0.8742 H       1  LIG1        0.0660
     25 H          -4.9336   -3.1687    0.0023 H       1  LIG1        0.0677
     26 C          -5.7587   -0.3150    0.0014 C.ar    1  LIG1        0.1128
     27 C          -6.1626    0.9830    0.0016 C.ar    1  LIG1        0.2062
     28 C          -7.5946    0.9853    0.0038 C.ar    1  LIG1        0.0127
     29 C          -8.0028   -0.3114    0.0030 C.ar    1  LIG1        0.0707
     30 N          -6.8820   -1.1108    0.0021 N.ar    1  LIG1       -0.3486
     31 H          -6.8836   -2.1048    0.0013 H       1  LIG1        0.1661
     32 O          -5.3884    2.0274    0.0015 O.3     1  LIG1       -0.2856
     33 C          -4.0213    1.6080    0.0014 C.3     2  LIG2       -0.0776
     34 H          -3.3844    2.4678    0.0012 H       1  LIG1        0.0194
     35 H          -3.8281    1.0213    0.8752 H       1  LIG1        0.0194
     36 H          -3.8283    1.0210   -0.8721 H       1  LIG1        0.0194
     37 H          -8.3655    2.0321    0.0056 H       1  LIG1        0.0678
     38 C          -9.1996   -0.8190    0.0041 C.ar    1  LIG1        0.1052
     39 C          -9.6076   -2.1157    0.0044 C.ar    1  LIG1        0.1467
     40 C         -11.0396   -2.1135    0.0069 C.ar    1  LIG1       -0.0019
     41 C         -11.4437   -0.8155    0.0063 C.ar    1  LIG1        0.0058
     42 N         -10.3204   -0.0196    0.0051 N.ar    1  LIG1       -0.3566
     43 H         -10.3188    0.9744    0.0043 H       1  LIG1        0.1655
     44 H         -12.6389   -0.3041    0.0077 H       1  LIG1        0.0808
     45 O          -8.8367   -3.1625    0.0040 O.3     1  LIG1       -0.4929
     46 C          -9.6391   -4.3462    0.0038 C.3     1  LIG1        0.0789
     47 H          -9.0042   -5.2075    0.0034 H       1  LIG1        0.0660
     48 H         -10.2566   -4.3587    0.8777 H       1  LIG1        0.0660
     49 H         -10.2570   -4.3581   -0.8696 H       1  LIG1        0.0660
     50 H         -11.8138   -3.1578    0.0089 H       1  LIG1        0.0669
@<TRIPOS>BOND
     1    24    21    1
     2    12     9    1
     3    36    33    1
     4    49    46    1
     5    22    21    1
     6    21    20    1
     7    21    23    1
     8    20    15    1
     9     2     8    1
    10     2     1   ar
    11     2     3   ar
    12    15    14   ar
    13    15    16   ar
    14     4    14    1
    15     4     5   ar
    16     4     3   ar
    17     6     5    1
    18     8     9    1
    19     9    10    1
    20     9    11    1
    21    19    33    1
    22    14    18   ar
    23     5     1   ar
    24     1     7    1
    25     3    13    1
    26    18    17   ar
    27    17    16   ar
    28    17    26    1
    29    16    25    1
    30    34    33    1
    31    31    30    1
    32    33    35    1
    33    26    27   ar
    34    26    30   ar
    35    32    27    1
    36    27    28   ar
    37    30    29   ar
    38    29    28   ar
    39    29    38    1
    40    47    46    1
    41    28    37    1
    42    46    45    1
    43    46    48    1
    44    45    39    1
    45    38    39   ar
    46    38    42   ar
    47    43    42    1
    48    39    40   ar
    49    42    41   ar
    50    41    40   ar
    51    41    44    1
    52    40    50    1
