@<TRIPOS>MOLECULE
mol_data/noopt/geoms/mol2/13la13la13la-13la-.out
 50 52 0 0 0
SMALL
GASTEIGER

@<TRIPOS>ATOM
      1 C           1.1215   -0.3259    0.0002 C.ar    1  LIG1        0.0450
      2 C           0.7176    0.9721   -0.0005 C.ar    1  LIG1        0.1458
      3 C          -0.7144    0.9744    0.0003 C.ar    1  LIG1        0.0562
      4 C          -1.1226   -0.3223   -0.0003 C.ar    1  LIG1        0.0783
      5 N          -0.0018   -1.1217    0.0001 N.ar    1  LIG1       -0.3559
      6 H          -0.0034   -2.1157   -0.0003 H       1  LIG1        0.1655
      7 H           2.3167   -0.8373    0.0007 H       1  LIG1        0.0844
      8 O           1.4918    2.0165   -0.0003 O.3     1  LIG1       -0.4930
      9 C           2.8590    1.5971   -0.0003 C.3     1  LIG1        0.0789
     10 H           3.4958    2.4569   -0.0003 H       1  LIG1        0.0660
     11 H           3.0520    1.0102    0.8734 H       1  LIG1        0.0660
     12 H           3.0520    1.0102   -0.8739 H       1  LIG1        0.0660
     13 H          -1.4853    2.0212    0.0010 H       1  LIG1        0.0194
     14 C          -2.3194   -0.8299   -0.0001 C.ar    1  LIG1        0.1113
     15 C          -3.5353   -0.2219   -0.0003 C.ar    1  LIG1        0.2061
     16 C          -4.5290   -1.2530    0.0012 C.ar    1  LIG1        0.0127
     17 C          -3.8767   -2.4457    0.0005 C.ar    1  LIG1        0.0707
     18 N          -2.5238   -2.1913    0.0002 N.ar    1  LIG1       -0.3487
     19 H          -1.8081   -2.8811   -0.0004 H       1  LIG1        0.1661
     20 O          -3.7520    1.0599   -0.0003 O.3     1  LIG1       -0.2856
     21 C          -2.5024    1.7552   -0.0003 C.3     2  LIG2       -0.0776
     22 H          -2.6813    2.8102   -0.0005 H       1  LIG1        0.0194
     23 H          -1.9455    1.4880    0.8734 H       1  LIG1        0.0194
     24 H          -1.9455    1.4878   -0.8739 H       1  LIG1        0.0194
     25 H          -5.8179   -1.0837    0.0025 H       1  LIG1        0.0678
     26 C          -4.3398   -3.6604    0.0012 C.ar    1  LIG1        0.1057
     27 C          -3.6874   -4.8530    0.0012 C.ar    1  LIG1        0.1473
     28 C          -4.6811   -5.8841    0.0032 C.ar    1  LIG1        0.0076
     29 C          -5.8970   -5.2763    0.0027 C.ar    1  LIG1        0.0705
     30 N          -5.6927   -3.9149    0.0019 N.ar    1  LIG1       -0.3488
     31 H          -6.4084   -3.2251    0.0013 H       1  LIG1        0.1661
     32 O          -2.3984   -5.0223    0.0009 O.3     1  LIG1       -0.4929
     33 C          -2.1007   -6.4210    0.0008 C.3     1  LIG1        0.0789
     34 H          -1.0397   -6.5599    0.0004 H       1  LIG1        0.0660
     35 H          -2.5195   -6.8749    0.8746 H       1  LIG1        0.0660
     36 H          -2.5201   -6.8748   -0.8727 H       1  LIG1        0.0660
     37 H          -4.4643   -7.1660    0.0049 H       1  LIG1        0.0676
     38 C          -7.0939   -5.7839    0.0038 C.ar    1  LIG1        0.1052
     39 C          -7.5019   -7.0806    0.0041 C.ar    1  LIG1        0.1467
     40 C          -8.9339   -7.0784    0.0067 C.ar    1  LIG1       -0.0019
     41 C          -9.3380   -5.7804    0.0061 C.ar    1  LIG1        0.0058
     42 N          -8.2146   -4.9846    0.0048 N.ar    1  LIG1       -0.3566
     43 H          -8.2131   -3.9906    0.0040 H       1  LIG1        0.1655
     44 H         -10.5331   -5.2690    0.0075 H       1  LIG1        0.0808
     45 O          -6.7309   -8.1274    0.0038 O.3     1  LIG1       -0.4929
     46 C          -7.5333   -9.3111    0.0036 C.3     1  LIG1        0.0789
     47 H          -6.8985  -10.1724    0.0031 H       1  LIG1        0.0660
     48 H          -8.1508   -9.3236    0.8774 H       1  LIG1        0.0660
     49 H          -8.1512   -9.3230   -0.8699 H       1  LIG1        0.0660
     50 H          -9.7081   -8.1227    0.0087 H       1  LIG1        0.0669
@<TRIPOS>BOND
     1    24    21    1
     2    12     9    1
     3    36    33    1
     4    49    46    1
     5     2     8    1
     6     2     1   ar
     7     2     3   ar
     8    22    21    1
     9    19    18    1
    10    21    13    1
    11    21    23    1
    12    15    20    1
    13    15    14   ar
    14    15    16   ar
    15     9    10    1
    16     9     8    1
    17     9    11    1
    18     6     5    1
    19     4    14    1
    20     4     5   ar
    21     4     3   ar
    22    14    18   ar
    23     5     1   ar
    24    18    17   ar
    25     1     7    1
    26    34    33    1
    27    17    16   ar
    28    17    26    1
    29    33    32    1
    30    33    35    1
    31    32    27    1
    32    27    26   ar
    33    27    28   ar
    34    16    25    1
    35    26    30   ar
    36    31    30    1
    37    30    29   ar
    38    29    28   ar
    39    29    38    1
    40    47    46    1
    41    28    37    1
    42    46    45    1
    43    46    48    1
    44    45    39    1
    45    38    39   ar
    46    38    42   ar
    47    43    42    1
    48    39    40   ar
    49    42    41   ar
    50    41    40   ar
    51    41    44    1
    52    40    50    1
