@<TRIPOS>MOLECULE
mol_data/noopt/geoms/mol2/13la6hd(220)12ia(150)6ff(290).out
 47 50 0 0 0
SMALL
GASTEIGER

@<TRIPOS>ATOM
      1 C           1.1215   -0.3259    0.0002 C.ar    1  LIG1        0.0444
      2 C           0.7176    0.9721   -0.0005 C.ar    1  LIG1        0.1379
      3 C          -0.7144    0.9744    0.0003 C.ar    1  LIG1        0.0055
      4 C          -1.1226   -0.3223   -0.0003 C.ar    1  LIG1        0.0534
      5 N          -0.0018   -1.1217    0.0001 N.ar    1  LIG1       -0.3575
      6 H          -0.0034   -2.1157   -0.0003 H       1  LIG1        0.1654
      7 H           2.3167   -0.8373    0.0007 H       1  LIG1        0.0844
      8 O           1.4918    2.0165   -0.0003 O.3     1  LIG1       -0.4936
      9 C           2.8590    1.5971   -0.0003 C.3     1  LIG1        0.0789
     10 H           3.4958    2.4569   -0.0003 H       1  LIG1        0.0660
     11 H           3.0520    1.0102    0.8734 H       1  LIG1        0.0660
     12 H           3.0520    1.0102   -0.8739 H       1  LIG1        0.0660
     13 H          -1.4853    2.0212    0.0010 H       1  LIG1        0.0675
     14 C          -3.3373   -0.2510    0.7798 C.ar    1  LIG1        0.1262
     15 C          -2.3194   -0.8299   -0.0001 C.ar    1  LIG1        0.0392
     16 C          -2.6260   -1.9548   -0.7680 C.ar    1  LIG1       -0.0298
     17 C          -3.9271   -2.4592   -0.7313 C.ar    1  LIG1        0.0815
     18 C          -4.8761   -1.8106    0.0800 C.ar    1  LIG1        0.1257
     19 N          -4.5976   -0.7244    0.8270 N.ar    1  LIG1       -0.2274
     20 H          -1.8566   -2.4349   -1.3890 H       1  LIG1        0.0639
     21 N          -3.1006    0.7973    1.5113 N.pl3   1  LIG1       -0.3426
     22 H          -2.1850    1.1450    1.3091 H       1  LIG1        0.1437
     23 H          -3.7779    1.5047    1.3091 H       1  LIG1        0.1437
     24 N          -4.5586   -4.4260   -2.0423 N.1     1  LIG1       -0.1908
     25 C          -4.2626   -3.5043   -1.4279 C.1     1  LIG1        0.1014
     26 C          -6.1004   -2.2426    0.1474 C.ar    1  LIG1        0.1580
     27 C          -6.7179   -3.3759    0.6343 C.ar    1  LIG1       -0.0025
     28 C          -8.1354   -3.2154    0.3854 C.ar    1  LIG1       -0.0121
     29 C          -8.2901   -1.9940   -0.2374 C.ar    1  LIG1        0.1412
     30 O          -7.0495   -1.3751   -0.3952 O.2     1  LIG1       -0.4528
     31 C          -6.1612   -4.4014    1.2082 C.3     1  LIG1       -0.0360
     32 H          -5.3470   -4.0701    1.8183 H       1  LIG1        0.0279
     33 H          -5.7960   -5.0739    0.4604 H       1  LIG1        0.0279
     34 H          -6.8826   -4.9038    1.8182 H       1  LIG1        0.0279
     35 H          -9.0614   -4.0723    0.6987 H       1  LIG1        0.0658
     36 C         -10.4117   -1.0508    0.1194 C.ar    1  LIG1        0.2234
     37 C          -9.2951   -1.3091   -0.6966 C.ar    1  LIG1        0.0820
     38 C          -9.2945   -0.8142   -2.0020 C.ar    1  LIG1       -0.0029
     39 C         -10.3993   -0.0847   -2.4445 C.ar    1  LIG1        0.1358
     40 C         -11.4688    0.1210   -1.5537 C.ar    1  LIG1        0.0728
     41 N         -11.4858   -0.3490   -0.2912 N.ar    1  LIG1       -0.2172
     42 H          -8.4402   -0.9967   -2.6692 H       1  LIG1        0.0663
     43 H         -12.5193    0.7939   -1.9193 H       1  LIG1        0.0868
     44 O         -10.4587   -1.4905    1.3419 O.3     1  LIG1       -0.4919
     45 H          -9.5704   -1.6951    1.6432 H       1  LIG1        0.2937
     46 O         -10.4471    0.3971   -3.6511 O.3     1  LIG1       -0.5052
     47 H         -11.3594    0.4265   -3.9484 H       1  LIG1        0.2922
@<TRIPOS>BOND
     1    47    46    1
     2    46    39    1
     3    42    38    1
     4    39    38   ar
     5    39    40   ar
     6    24    25    3
     7    38    37   ar
     8    43    40    1
     9    40    41   ar
    10    25    17    1
    11    20    16    1
    12    12     9    1
    13    16    17   ar
    14    16    15   ar
    15    17    18   ar
    16    37    29    1
    17    37    36   ar
    18    30    29   ar
    19    30    26   ar
    20    41    36   ar
    21    29    28   ar
    22     2     8    1
    23     2     1   ar
    24     2     3   ar
    25     6     5    1
    26     4    15    1
    27     4     5   ar
    28     4     3   ar
    29     8     9    1
    30     9    10    1
    31     9    11    1
    32    15    14   ar
    33     5     1   ar
    34     1     7    1
    35     3    13    1
    36    18    26    1
    37    18    19   ar
    38    36    44    1
    39    26    27   ar
    40    28    27   ar
    41    28    35    1
    42    33    31    1
    43    27    31    1
    44    14    19   ar
    45    14    21    1
    46    31    34    1
    47    31    32    1
    48    23    21    1
    49    22    21    1
    50    44    45    1
