@<TRIPOS>MOLECULE
mol_data/noopt/geoms/mol2/13la13la-13la.out
 38 39 0 0 0
SMALL
GASTEIGER

@<TRIPOS>ATOM
      1 C           1.1215   -0.3259    0.0002 C.ar    1  LIG1        0.0444
      2 C           0.7176    0.9721   -0.0005 C.ar    1  LIG1        0.1379
      3 C          -0.7144    0.9744    0.0003 C.ar    1  LIG1        0.0070
      4 C          -1.1226   -0.3223   -0.0003 C.ar    1  LIG1        0.0721
      5 N          -0.0018   -1.1217    0.0001 N.ar    1  LIG1       -0.3563
      6 H          -0.0034   -2.1157   -0.0003 H       1  LIG1        0.1655
      7 H           2.3167   -0.8373    0.0007 H       1  LIG1        0.0844
      8 O           1.4918    2.0165   -0.0003 O.3     1  LIG1       -0.4936
      9 C           2.8590    1.5971   -0.0003 C.3     1  LIG1        0.0789
     10 H           3.4958    2.4569   -0.0003 H       1  LIG1        0.0660
     11 H           3.0520    1.0102    0.8734 H       1  LIG1        0.0660
     12 H           3.0520    1.0102   -0.8739 H       1  LIG1        0.0660
     13 H          -1.4853    2.0212    0.0010 H       1  LIG1        0.0676
     14 C          -2.3194   -0.8299   -0.0001 C.ar    1  LIG1        0.1294
     15 C          -2.7274   -2.1266   -0.0005 C.ar    1  LIG1        0.1494
     16 C          -4.1594   -2.1244    0.0011 C.ar    1  LIG1        0.0098
     17 C          -4.5635   -0.8264    0.0006 C.ar    1  LIG1        0.0952
     18 N          -3.4402   -0.0305    0.0003 N.ar    1  LIG1       -0.2398
     19 H          -3.4386    0.9635   -0.0001 H       1  LIG1        0.0194
     20 O          -1.9565   -3.1734   -0.0006 O.3     1  LIG1       -0.4928
     21 C          -2.7589   -4.3571   -0.0007 C.3     1  LIG1        0.0789
     22 H          -2.1240   -5.2184   -0.0010 H       1  LIG1        0.0660
     23 H          -3.3764   -4.3695    0.8731 H       1  LIG1        0.0660
     24 H          -3.3767   -4.3691   -0.8742 H       1  LIG1        0.0660
     25 H          -4.9336   -3.1687    0.0023 H       1  LIG1        0.0677
     26 C          -5.7587   -0.3150    0.0014 C.ar    1  LIG1        0.1123
     27 C          -6.1626    0.9830    0.0016 C.ar    1  LIG1        0.2055
     28 C          -7.5946    0.9853    0.0038 C.ar    1  LIG1        0.0031
     29 C          -8.0028   -0.3114    0.0030 C.ar    1  LIG1        0.0060
     30 N          -6.8820   -1.1108    0.0021 N.ar    1  LIG1       -0.3564
     31 H          -6.8836   -2.1048    0.0013 H       1  LIG1        0.1655
     32 H          -9.1996   -0.8190    0.0041 H       1  LIG1        0.0808
     33 O          -5.3884    2.0274    0.0015 O.3     1  LIG1       -0.2856
     34 C          -4.0213    1.6080    0.0014 C.3     2  LIG2       -0.0776
     35 H          -3.3844    2.4678    0.0012 H       1  LIG1        0.0194
     36 H          -3.8281    1.0213    0.8752 H       1  LIG1        0.0194
     37 H          -3.8283    1.0210   -0.8721 H       1  LIG1        0.0194
     38 H          -8.3655    2.0321    0.0056 H       1  LIG1        0.0671
@<TRIPOS>BOND
     1    24    21    1
     2    12     9    1
     3    37    34    1
     4    22    21    1
     5    21    20    1
     6    21    23    1
     7    20    15    1
     8     2     8    1
     9     2     1   ar
    10     2     3   ar
    11    15    14   ar
    12    15    16   ar
    13     4    14    1
    14     4     5   ar
    15     4     3   ar
    16     6     5    1
    17     8     9    1
    18     9    10    1
    19     9    11    1
    20    19    34    1
    21    14    18   ar
    22     5     1   ar
    23     1     7    1
    24     3    13    1
    25    18    17   ar
    26    17    16   ar
    27    17    26    1
    28    16    25    1
    29    35    34    1
    30    31    30    1
    31    34    36    1
    32    26    27   ar
    33    26    30   ar
    34    33    27    1
    35    27    28   ar
    36    30    29   ar
    37    29    28   ar
    38    29    32    1
    39    28    38    1
