@<TRIPOS>MOLECULE
mol_data/noopt/geoms/mol2/13la13la13la.out
 38 38 0 0 0
SMALL
GASTEIGER

@<TRIPOS>ATOM
      1 C           1.1215   -0.3259    0.0002 C.ar    1  LIG1        0.0450
      2 C           0.7176    0.9721   -0.0005 C.ar    1  LIG1        0.1458
      3 C          -0.7144    0.9744    0.0003 C.ar    1  LIG1        0.0562
      4 C          -1.1226   -0.3223   -0.0003 C.ar    1  LIG1        0.0783
      5 N          -0.0018   -1.1217    0.0001 N.ar    1  LIG1       -0.3559
      6 H          -0.0034   -2.1157   -0.0003 H       1  LIG1        0.1655
      7 H           2.3167   -0.8373    0.0007 H       1  LIG1        0.0844
      8 O           1.4918    2.0165   -0.0003 O.3     1  LIG1       -0.4930
      9 C           2.8590    1.5971   -0.0003 C.3     1  LIG1        0.0789
     10 H           3.4958    2.4569   -0.0003 H       1  LIG1        0.0660
     11 H           3.0520    1.0102    0.8734 H       1  LIG1        0.0660
     12 H           3.0520    1.0102   -0.8739 H       1  LIG1        0.0660
     13 H          -1.4853    2.0212    0.0010 H       1  LIG1        0.0194
     14 C          -2.3194   -0.8299   -0.0001 C.ar    1  LIG1        0.1120
     15 C          -3.5353   -0.2219   -0.0003 C.ar    1  LIG1        0.2140
     16 C          -4.5290   -1.2530    0.0012 C.ar    1  LIG1        0.0621
     17 C          -3.8767   -2.4457    0.0005 C.ar    1  LIG1        0.0789
     18 N          -2.5238   -2.1913    0.0002 N.ar    1  LIG1       -0.3482
     19 H          -1.8081   -2.8811   -0.0004 H       1  LIG1        0.1661
     20 O          -3.7520    1.0599   -0.0003 O.3     1  LIG1       -0.2849
     21 C          -2.5024    1.7552   -0.0003 C.3     2  LIG2       -0.0776
     22 H          -2.6813    2.8102   -0.0005 H       1  LIG1        0.0194
     23 H          -1.9455    1.4880    0.8734 H       1  LIG1        0.0194
     24 H          -1.9455    1.4878   -0.8739 H       1  LIG1        0.0194
     25 H          -5.8179   -1.0837    0.0025 H       2  LIG2        0.0194
     26 C          -4.3398   -3.6604    0.0012 C.ar    1  LIG1        0.1109
     27 C          -5.6206   -4.1160    0.0013 C.ar    1  LIG1        0.2055
     28 C          -5.5655   -5.5470    0.0033 C.ar    1  LIG1        0.0031
     29 C          -4.2535   -5.9029    0.0026 C.ar    1  LIG1        0.0060
     30 N          -3.4996   -4.7510    0.0018 N.ar    1  LIG1       -0.3564
     31 H          -2.5064   -4.7127    0.0010 H       1  LIG1        0.1655
     32 H          -3.6983   -7.0784    0.0036 H       1  LIG1        0.0808
     33 O          -6.6951   -3.3843    0.0012 O.3     1  LIG1       -0.2856
     34 C          -6.3308   -2.0014    0.0011 C.3     3  LIG3       -0.0776
     35 H          -7.2155   -1.3995    0.0009 H       2  LIG2        0.0194
     36 H          -5.7524   -1.7849    0.8749 H       2  LIG2        0.0194
     37 H          -5.7521   -1.7851   -0.8724 H       2  LIG2        0.0194
     38 H          -6.5805   -6.3592    0.0050 H       1  LIG1        0.0671
@<TRIPOS>BOND
     1    24    21    1
     2    12     9    1
     3    37    34    1
     4     2     8    1
     5     2     1   ar
     6     2     3   ar
     7    22    21    1
     8    19    18    1
     9    21    13    1
    10    21    23    1
    11    15    20    1
    12    15    14   ar
    13    15    16   ar
    14     9    10    1
    15     9     8    1
    16     9    11    1
    17     6     5    1
    18     4    14    1
    19     4     5   ar
    20     4     3   ar
    21    14    18   ar
    22     5     1   ar
    23    18    17   ar
    24     1     7    1
    25    17    16   ar
    26    17    26    1
    27    35    34    1
    28    31    30    1
    29    34    25    1
    30    34    36    1
    31    26    27   ar
    32    26    30   ar
    33    33    27    1
    34    27    28   ar
    35    30    29   ar
    36    29    28   ar
    37    29    32    1
    38    28    38    1
