@<TRIPOS>MOLECULE
mol_data/noopt/geoms/mol2/13la13la.out
 26 26 0 0 0
SMALL
GASTEIGER

@<TRIPOS>ATOM
      1 C           1.1215   -0.3259    0.0002 C.ar    1  LIG1        0.0450
      2 C           0.7176    0.9721   -0.0005 C.ar    1  LIG1        0.1458
      3 C          -0.7144    0.9744    0.0003 C.ar    1  LIG1        0.0562
      4 C          -1.1226   -0.3223   -0.0003 C.ar    1  LIG1        0.0783
      5 N          -0.0018   -1.1217    0.0001 N.ar    1  LIG1       -0.3559
      6 H          -0.0034   -2.1157   -0.0003 H       1  LIG1        0.1655
      7 H           2.3167   -0.8373    0.0007 H       1  LIG1        0.0844
      8 O           1.4918    2.0165   -0.0003 O.3     1  LIG1       -0.4930
      9 C           2.8590    1.5971   -0.0003 C.3     1  LIG1        0.0789
     10 H           3.4958    2.4569   -0.0003 H       1  LIG1        0.0660
     11 H           3.0520    1.0102    0.8734 H       1  LIG1        0.0660
     12 H           3.0520    1.0102   -0.8739 H       1  LIG1        0.0660
     13 H          -1.4853    2.0212    0.0010 H       1  LIG1        0.0194
     14 C          -2.3194   -0.8299   -0.0001 C.ar    1  LIG1        0.1108
     15 C          -3.5353   -0.2219   -0.0003 C.ar    1  LIG1        0.2055
     16 C          -4.5290   -1.2530    0.0012 C.ar    1  LIG1        0.0031
     17 C          -3.8767   -2.4457    0.0005 C.ar    1  LIG1        0.0060
     18 N          -2.5238   -2.1913    0.0002 N.ar    1  LIG1       -0.3564
     19 H          -1.8081   -2.8811   -0.0004 H       1  LIG1        0.1655
     20 H          -4.3398   -3.6604    0.0012 H       1  LIG1        0.0808
     21 O          -3.7520    1.0599   -0.0003 O.3     1  LIG1       -0.2856
     22 C          -2.5024    1.7552   -0.0003 C.3     2  LIG2       -0.0776
     23 H          -2.6813    2.8102   -0.0005 H       1  LIG1        0.0194
     24 H          -1.9455    1.4880    0.8734 H       1  LIG1        0.0194
     25 H          -1.9455    1.4878   -0.8739 H       1  LIG1        0.0194
     26 H          -5.8179   -1.0837    0.0025 H       1  LIG1        0.0671
@<TRIPOS>BOND
     1    25    22    1
     2    12     9    1
     3     2     8    1
     4     2     1   ar
     5     2     3   ar
     6    23    22    1
     7    19    18    1
     8    22    13    1
     9    22    24    1
    10    15    21    1
    11    15    14   ar
    12    15    16   ar
    13     4    14    1
    14     4     5   ar
    15     4     3   ar
    16     6     5    1
    17     8     9    1
    18     9    10    1
    19     9    11    1
    20    14    18   ar
    21     5     1   ar
    22    18    17   ar
    23     1     7    1
    24    17    16   ar
    25    17    20    1
    26    16    26    1
