@<TRIPOS>MOLECULE
mol_data/noopt/geoms/mol2/13la13la-13la-13la.out
 50 52 0 0 0
SMALL
GASTEIGER

@<TRIPOS>ATOM
      1 C           1.1215   -0.3259    0.0002 C.ar    1  LIG1        0.0444
      2 C           0.7176    0.9721   -0.0005 C.ar    1  LIG1        0.1379
      3 C          -0.7144    0.9744    0.0003 C.ar    1  LIG1        0.0069
      4 C          -1.1226   -0.3223   -0.0003 C.ar    1  LIG1        0.0701
      5 N          -0.0018   -1.1217    0.0001 N.ar    1  LIG1       -0.3564
      6 H          -0.0034   -2.1157   -0.0003 H       1  LIG1        0.1655
      7 H           2.3167   -0.8373    0.0007 H       1  LIG1        0.0844
      8 O           1.4918    2.0165   -0.0003 O.3     1  LIG1       -0.4936
      9 C           2.8590    1.5971   -0.0003 C.3     1  LIG1        0.0789
     10 H           3.4958    2.4569   -0.0003 H       1  LIG1        0.0660
     11 H           3.0520    1.0102    0.8734 H       1  LIG1        0.0660
     12 H           3.0520    1.0102   -0.8739 H       1  LIG1        0.0660
     13 H          -1.4853    2.0212    0.0010 H       1  LIG1        0.0676
     14 C          -2.3194   -0.8299   -0.0001 C.ar    1  LIG1        0.1057
     15 C          -2.7274   -2.1266   -0.0005 C.ar    1  LIG1        0.1473
     16 C          -4.1594   -2.1244    0.0011 C.ar    1  LIG1        0.0077
     17 C          -4.5635   -0.8264    0.0006 C.ar    1  LIG1        0.0726
     18 N          -3.4402   -0.0305    0.0003 N.ar    1  LIG1       -0.3488
     19 H          -3.4386    0.9635   -0.0001 H       1  LIG1        0.1661
     20 O          -1.9565   -3.1734   -0.0006 O.3     1  LIG1       -0.4929
     21 C          -2.7589   -4.3571   -0.0007 C.3     1  LIG1        0.0789
     22 H          -2.1240   -5.2184   -0.0010 H       1  LIG1        0.0660
     23 H          -3.3764   -4.3695    0.8731 H       1  LIG1        0.0660
     24 H          -3.3767   -4.3691   -0.8742 H       1  LIG1        0.0660
     25 H          -4.9336   -3.1687    0.0023 H       1  LIG1        0.0676
     26 C          -5.7587   -0.3150    0.0014 C.ar    1  LIG1        0.1294
     27 C          -6.9765   -0.9191    0.0015 C.ar    1  LIG1        0.1494
     28 C          -7.9670    0.1151    0.0037 C.ar    1  LIG1        0.0098
     29 C          -7.3109    1.3057    0.0031 C.ar    1  LIG1        0.0952
     30 N          -5.9587    1.0470    0.0022 N.ar    1  LIG1       -0.2398
     31 H          -5.2408    1.7345    0.0016 H       1  LIG1        0.0194
     32 O          -7.1973   -2.2003    0.0012 O.3     1  LIG1       -0.4928
     33 C          -8.6068   -2.4417    0.0010 C.3     1  LIG1        0.0789
     34 H          -8.7881   -3.4962    0.0007 H       1  LIG1        0.0660
     35 H          -9.0435   -2.0050    0.8749 H       1  LIG1        0.0660
     36 H          -9.0434   -2.0044   -0.8724 H       1  LIG1        0.0660
     37 H          -9.2564   -0.0501    0.0054 H       1  LIG1        0.0677
     38 C          -7.7701    2.5219    0.0044 C.ar    1  LIG1        0.1123
     39 C          -7.1139    3.7125    0.0049 C.ar    1  LIG1        0.2055
     40 C          -8.1043    4.7467    0.0074 C.ar    1  LIG1        0.0031
     41 C          -9.3222    4.1427    0.0066 C.ar    1  LIG1        0.0060
     42 N          -9.1222    2.7807    0.0052 N.ar    1  LIG1       -0.3564
     43 H          -9.8401    2.0932    0.0043 H       1  LIG1        0.1655
     44 H         -10.5174    4.6541    0.0080 H       1  LIG1        0.0808
     45 O          -5.8244    3.8776    0.0047 O.3     1  LIG1       -0.2856
     46 C          -5.1797    2.6012    0.0045 C.3     2  LIG2       -0.0776
     47 H          -4.1184    2.7376    0.0042 H       1  LIG1        0.0194
     48 H          -5.4689    2.0555    0.8783 H       1  LIG1        0.0194
     49 H          -5.4694    2.0554   -0.8690 H       1  LIG1        0.0194
     50 H          -7.8835    6.0278    0.0096 H       1  LIG1        0.0671
@<TRIPOS>BOND
     1    24    21    1
     2    12     9    1
     3    36    33    1
     4    49    46    1
     5    22    21    1
     6    21    20    1
     7    21    23    1
     8    20    15    1
     9     2     8    1
    10     2     1   ar
    11     2     3   ar
    12    15    14   ar
    13    15    16   ar
    14     8     9    1
    15     9    10    1
    16     9    11    1
    17     4    14    1
    18     4     5   ar
    19     4     3   ar
    20     6     5    1
    21    19    18    1
    22    14    18   ar
    23     5     1   ar
    24     1     7    1
    25     3    13    1
    26    18    17   ar
    27    17    16   ar
    28    17    26    1
    29    34    33    1
    30    33    32    1
    31    33    35    1
    32    16    25    1
    33    32    27    1
    34    26    27   ar
    35    26    30   ar
    36    27    28   ar
    37    31    46    1
    38    30    29   ar
    39    29    28   ar
    40    29    38    1
    41    28    37    1
    42    47    46    1
    43    43    42    1
    44    38    39   ar
    45    38    42   ar
    46    46    48    1
    47    45    39    1
    48    39    40   ar
    49    42    41   ar
    50    41    40   ar
    51    41    44    1
    52    40    50    1
