@<TRIPOS>MOLECULE
mol_data/noopt/geoms/mol2/13ld13ld-13ld.out
 41 42 0 0 0
SMALL
GASTEIGER

@<TRIPOS>ATOM
      1 C           1.1215   -0.3259    0.0002 C.ar    1  LIG1        0.0457
      2 C           0.7176    0.9721   -0.0005 C.ar    1  LIG1        0.1553
      3 C          -0.7144    0.9744    0.0003 C.ar    1  LIG1        0.1201
      4 C          -1.1226   -0.3223   -0.0003 C.ar    1  LIG1        0.0899
      5 N          -0.0018   -1.1217    0.0001 N.ar    1  LIG1       -0.3553
      6 H          -0.0034   -2.1157   -0.0003 H       1  LIG1        0.1655
      7 H           2.3167   -0.8373    0.0007 H       1  LIG1        0.0845
      8 O           1.4918    2.0165   -0.0003 O.3     1  LIG1       -0.4923
      9 C           2.8590    1.5971   -0.0003 C.3     1  LIG1        0.0789
     10 H           3.4958    2.4569   -0.0003 H       1  LIG1        0.0660
     11 H           3.0520    1.0102    0.8734 H       1  LIG1        0.0660
     12 H           3.0520    1.0102   -0.8739 H       1  LIG1        0.0660
     13 N          -2.1652    2.9444    0.0016 N.1     1  LIG1       -0.1907
     14 C          -1.4853    2.0212    0.0010 C.1     1  LIG1        0.1050
     15 C          -2.3194   -0.8299   -0.0001 C.ar    1  LIG1        0.1320
     16 C          -2.7274   -2.1266   -0.0005 C.ar    1  LIG1        0.1668
     17 C          -4.1594   -2.1244    0.0011 C.ar    1  LIG1        0.1228
     18 C          -4.5635   -0.8264    0.0006 C.ar    1  LIG1        0.1127
     19 N          -3.4402   -0.0305    0.0003 N.ar    1  LIG1       -0.2385
     20 H          -3.4386    0.9635   -0.0001 H       1  LIG1        0.0194
     21 O          -1.9565   -3.1734   -0.0006 O.3     1  LIG1       -0.4915
     22 C          -2.7589   -4.3571   -0.0007 C.3     1  LIG1        0.0789
     23 H          -2.1240   -5.2184   -0.0010 H       1  LIG1        0.0660
     24 H          -3.3764   -4.3695    0.8731 H       1  LIG1        0.0660
     25 H          -3.3767   -4.3691   -0.8742 H       1  LIG1        0.0660
     26 N          -5.6165   -4.0898    0.0034 N.1     1  LIG1       -0.1907
     27 C          -4.9336   -3.1687    0.0023 C.1     1  LIG1        0.1051
     28 C          -5.7587   -0.3150    0.0014 C.ar    1  LIG1        0.1149
     29 C          -6.1626    0.9830    0.0016 C.ar    1  LIG1        0.2228
     30 C          -7.5946    0.9853    0.0038 C.ar    1  LIG1        0.1163
     31 C          -8.0028   -0.3114    0.0030 C.ar    1  LIG1        0.0235
     32 N          -6.8820   -1.1108    0.0021 N.ar    1  LIG1       -0.3552
     33 H          -6.8836   -2.1048    0.0013 H       1  LIG1        0.1655
     34 H          -9.1996   -0.8190    0.0041 H       1  LIG1        0.0821
     35 O          -5.3884    2.0274    0.0015 O.3     1  LIG1       -0.2842
     36 C          -4.0213    1.6080    0.0014 C.3     2  LIG2       -0.0776
     37 H          -3.3844    2.4678    0.0012 H       1  LIG1        0.0194
     38 H          -3.8281    1.0213    0.8752 H       1  LIG1        0.0194
     39 H          -3.8283    1.0210   -0.8721 H       1  LIG1        0.0194
     40 N          -9.0454    2.9553    0.0072 N.1     1  LIG1       -0.1907
     41 C          -8.3655    2.0321    0.0056 C.1     1  LIG1        0.1045
@<TRIPOS>BOND
     1    25    22    1
     2    12     9    1
     3    39    36    1
     4    23    22    1
     5    22    21    1
     6    22    24    1
     7    21    16    1
     8     2     8    1
     9     2     1   ar
    10     2     3   ar
    11    16    15   ar
    12    16    17   ar
    13     4    15    1
    14     4     5   ar
    15     4     3   ar
    16     6     5    1
    17     8     9    1
    18     9    10    1
    19     9    11    1
    20    20    36    1
    21    15    19   ar
    22     5     1   ar
    23     1     7    1
    24     3    14    1
    25    19    18   ar
    26    18    17   ar
    27    18    28    1
    28    14    13    3
    29    17    27    1
    30    37    36    1
    31    33    32    1
    32    36    38    1
    33    28    29   ar
    34    28    32   ar
    35    35    29    1
    36    29    30   ar
    37    32    31   ar
    38    27    26    3
    39    31    30   ar
    40    31    34    1
    41    30    41    1
    42    41    40    3
