@<TRIPOS>MOLECULE
mol_data/noopt/geoms/mol2/13ld13ld13ld13ld-.out
 54 55 0 0 0
SMALL
GASTEIGER

@<TRIPOS>ATOM
      1 C           1.1215   -0.3259    0.0002 C.ar    1  LIG1        0.0450
      2 C           0.7176    0.9721   -0.0005 C.ar    1  LIG1        0.1458
      3 C          -0.7144    0.9744    0.0003 C.ar    1  LIG1        0.0562
      4 C          -1.1226   -0.3223   -0.0003 C.ar    1  LIG1        0.0783
      5 N          -0.0018   -1.1217    0.0001 N.ar    1  LIG1       -0.3559
      6 H          -0.0034   -2.1157   -0.0003 H       1  LIG1        0.1655
      7 H           2.3167   -0.8373    0.0007 H       1  LIG1        0.0844
      8 O           1.4918    2.0165   -0.0003 O.3     1  LIG1       -0.4930
      9 C           2.8590    1.5971   -0.0003 C.3     1  LIG1        0.0789
     10 H           3.4958    2.4569   -0.0003 H       1  LIG1        0.0660
     11 H           3.0520    1.0102    0.8734 H       1  LIG1        0.0660
     12 H           3.0520    1.0102   -0.8739 H       1  LIG1        0.0660
     13 N          -2.1652    2.9444    0.0016 N.3     1  LIG1       -0.1324
     14 C          -1.4853    2.0212    0.0010 C.3     1  LIG1        0.0975
     15 C          -2.3194   -0.8299   -0.0001 C.ar    1  LIG1        0.1120
     16 C          -3.5353   -0.2219   -0.0003 C.ar    1  LIG1        0.2140
     17 C          -4.5290   -1.2530    0.0012 C.ar    1  LIG1        0.0621
     18 C          -3.8767   -2.4457    0.0005 C.ar    1  LIG1        0.0790
     19 N          -2.5238   -2.1913    0.0002 N.ar    1  LIG1       -0.3482
     20 H          -1.8081   -2.8811   -0.0004 H       1  LIG1        0.1661
     21 O          -3.7520    1.0599   -0.0003 O.3     1  LIG1       -0.2849
     22 C          -2.5024    1.7552   -0.0003 C.3     1  LIG1       -0.0400
     23 H          -2.6813    2.8102   -0.0005 H       1  LIG1        0.0250
     24 H          -1.9455    1.4880    0.8734 H       1  LIG1        0.0250
     25 H          -1.9455    1.4878   -0.8739 H       1  LIG1        0.0250
     26 N          -6.9548   -0.9344    0.0036 N.3     2  LIG2       -0.1324
     27 C          -5.8179   -1.0837    0.0025 C.3     2  LIG2        0.0975
     28 C          -4.3398   -3.6604    0.0012 C.ar    1  LIG1        0.1127
     29 C          -5.6206   -4.1160    0.0013 C.ar    1  LIG1        0.2234
     30 C          -5.5655   -5.5470    0.0033 C.ar    1  LIG1        0.1257
     31 C          -4.2535   -5.9029    0.0026 C.ar    1  LIG1        0.0884
     32 N          -3.4996   -4.7510    0.0018 N.ar    1  LIG1       -0.3476
     33 H          -2.5064   -4.7127    0.0010 H       1  LIG1        0.1661
     34 O          -6.6951   -3.3843    0.0012 O.3     1  LIG1       -0.2842
     35 C          -6.3308   -2.0014    0.0011 C.3     2  LIG2       -0.0400
     36 H          -7.2155   -1.3995    0.0009 H       2  LIG2        0.0250
     37 H          -5.7524   -1.7849    0.8749 H       2  LIG2        0.0250
     38 H          -5.7521   -1.7851   -0.8724 H       2  LIG2        0.0250
     39 N          -7.4758   -7.0756    0.0065 N.1     1  LIG1       -0.1907
     40 C          -6.5805   -6.3592    0.0050 C.1     1  LIG1        0.1052
     41 C          -3.6983   -7.0784    0.0036 C.ar    1  LIG1        0.1078
     42 C          -2.3863   -7.4341    0.0038 C.ar    1  LIG1        0.1640
     43 C          -2.3311   -8.8651    0.0062 C.ar    1  LIG1        0.1112
     44 C          -3.6119   -9.3208    0.0056 C.ar    1  LIG1        0.0233
     45 N          -4.4521   -8.2303    0.0045 N.ar    1  LIG1       -0.3553
     46 H          -5.4454   -8.2686    0.0038 H       1  LIG1        0.1655
     47 H          -4.0750  -10.5356    0.0070 H       1  LIG1        0.0821
     48 O          -1.3712   -6.6219    0.0035 O.3     1  LIG1       -0.4916
     49 C          -0.1564   -7.3762    0.0033 C.3     1  LIG1        0.0789
     50 H           0.6788   -6.7073    0.0028 H       1  LIG1        0.0660
     51 H          -0.1191   -7.9926    0.8771 H       1  LIG1        0.0660
     52 H          -0.1197   -7.9931   -0.8702 H       1  LIG1        0.0660
     53 N          -0.3089  -10.2422    0.0098 N.1     1  LIG1       -0.1907
     54 C          -1.2566   -9.5968    0.0081 C.1     1  LIG1        0.1044
@<TRIPOS>BOND
     1    25    22    1
     2    12     9    1
     3    38    35    1
     4    52    49    1
     5     2     8    1
     6     2     1   ar
     7     2     3   ar
     8    23    22    1
     9    20    19    1
    10    22    14    1
    11    22    24    1
    12    16    21    1
    13    16    15   ar
    14    16    17   ar
    15    10     9    1
    16     9     8    1
    17     9    11    1
    18     6     5    1
    19     4    15    1
    20     4     5   ar
    21     4     3   ar
    22    15    19   ar
    23     5     1   ar
    24    19    18   ar
    25     1     7    1
    26    18    17   ar
    27    18    28    1
    28    36    35    1
    29    33    32    1
    30    14    13    1
    31    35    27    1
    32    35    37    1
    33    28    29   ar
    34    28    32   ar
    35    34    29    1
    36    29    30   ar
    37    32    31   ar
    38    27    26    1
    39    31    30   ar
    40    31    41    1
    41    50    49    1
    42    49    48    1
    43    49    51    1
    44    30    40    1
    45    48    42    1
    46    41    42   ar
    47    41    45   ar
    48    46    45    1
    49    42    43   ar
    50    45    44   ar
    51    40    39    3
    52    44    43   ar
    53    44    47    1
    54    43    54    1
    55    54    53    3
