@<TRIPOS>MOLECULE
mol_data/noopt/geoms/mol2/13ld13ld13ld13ld.out
 54 54 0 0 0
SMALL
GASTEIGER

@<TRIPOS>ATOM
      1 C           1.1215   -0.3259    0.0002 C.ar    1  LIG1        0.0450
      2 C           0.7176    0.9721   -0.0005 C.ar    1  LIG1        0.1458
      3 C          -0.7144    0.9744    0.0003 C.ar    1  LIG1        0.0562
      4 C          -1.1226   -0.3223   -0.0003 C.ar    1  LIG1        0.0783
      5 N          -0.0018   -1.1217    0.0001 N.ar    1  LIG1       -0.3559
      6 H          -0.0034   -2.1157   -0.0003 H       1  LIG1        0.1655
      7 H           2.3167   -0.8373    0.0007 H       1  LIG1        0.0844
      8 O           1.4918    2.0165   -0.0003 O.3     1  LIG1       -0.4930
      9 C           2.8590    1.5971   -0.0003 C.3     1  LIG1        0.0789
     10 H           3.4958    2.4569   -0.0003 H       1  LIG1        0.0660
     11 H           3.0520    1.0102    0.8734 H       1  LIG1        0.0660
     12 H           3.0520    1.0102   -0.8739 H       1  LIG1        0.0660
     13 N          -2.1652    2.9444    0.0016 N.3     1  LIG1       -0.1324
     14 C          -1.4853    2.0212    0.0010 C.3     1  LIG1        0.0975
     15 C          -2.3194   -0.8299   -0.0001 C.ar    1  LIG1        0.1120
     16 C          -3.5353   -0.2219   -0.0003 C.ar    1  LIG1        0.2140
     17 C          -4.5290   -1.2530    0.0012 C.ar    1  LIG1        0.0621
     18 C          -3.8767   -2.4457    0.0005 C.ar    1  LIG1        0.0789
     19 N          -2.5238   -2.1913    0.0002 N.ar    1  LIG1       -0.3482
     20 H          -1.8081   -2.8811   -0.0004 H       1  LIG1        0.1661
     21 O          -3.7520    1.0599   -0.0003 O.3     1  LIG1       -0.2849
     22 C          -2.5024    1.7552   -0.0003 C.3     1  LIG1       -0.0400
     23 H          -2.6813    2.8102   -0.0005 H       1  LIG1        0.0250
     24 H          -1.9455    1.4880    0.8734 H       1  LIG1        0.0250
     25 H          -1.9455    1.4878   -0.8739 H       1  LIG1        0.0250
     26 N          -6.9548   -0.9344    0.0036 N.3     2  LIG2       -0.1324
     27 C          -5.8179   -1.0837    0.0025 C.3     2  LIG2        0.0975
     28 C          -4.3398   -3.6604    0.0012 C.ar    1  LIG1        0.1120
     29 C          -5.6206   -4.1160    0.0013 C.ar    1  LIG1        0.2140
     30 C          -5.5655   -5.5470    0.0033 C.ar    1  LIG1        0.0621
     31 C          -4.2535   -5.9029    0.0026 C.ar    1  LIG1        0.0789
     32 N          -3.4996   -4.7510    0.0018 N.ar    1  LIG1       -0.3482
     33 H          -2.5064   -4.7127    0.0010 H       1  LIG1        0.1661
     34 O          -6.6951   -3.3843    0.0012 O.3     1  LIG1       -0.2849
     35 C          -6.3308   -2.0014    0.0011 C.3     2  LIG2       -0.0400
     36 H          -7.2155   -1.3995    0.0009 H       2  LIG2        0.0250
     37 H          -5.7524   -1.7849    0.8749 H       2  LIG2        0.0250
     38 H          -5.7521   -1.7851   -0.8724 H       2  LIG2        0.0250
     39 N          -7.4758   -7.0756    0.0065 N.3     3  LIG3       -0.1324
     40 C          -6.5805   -6.3592    0.0050 C.3     3  LIG3        0.0975
     41 C          -3.6983   -7.0784    0.0036 C.ar    1  LIG1        0.1122
     42 C          -4.2571   -8.3176    0.0039 C.ar    1  LIG1        0.2227
     43 C          -3.1870   -9.2693    0.0063 C.ar    1  LIG1        0.1163
     44 C          -2.0214   -8.5697    0.0055 C.ar    1  LIG1        0.0235
     45 N          -2.3298   -7.2280    0.0043 N.ar    1  LIG1       -0.3552
     46 H          -1.6693   -6.4852    0.0035 H       1  LIG1        0.1655
     47 H          -0.7891   -8.9837    0.0068 H       1  LIG1        0.0821
     48 O          -5.5292   -8.5856    0.0038 O.3     1  LIG1       -0.2842
     49 C          -6.2741   -7.3649    0.0037 C.3     3  LIG3       -0.0400
     50 H          -7.3210   -7.5858    0.0034 H       3  LIG3        0.0250
     51 H          -6.0295   -6.7977    0.8774 H       3  LIG3        0.0250
     52 H          -6.0290   -6.7976   -0.8699 H       3  LIG3        0.0250
     53 N          -3.4081  -11.7058    0.0101 N.1     1  LIG1       -0.1907
     54 C          -3.3045  -10.5639    0.0083 C.1     1  LIG1        0.1045
@<TRIPOS>BOND
     1    25    22    1
     2    12     9    1
     3    38    35    1
     4    52    49    1
     5     2     8    1
     6     2     1   ar
     7     2     3   ar
     8    23    22    1
     9    20    19    1
    10    22    14    1
    11    22    24    1
    12    16    21    1
    13    16    15   ar
    14    16    17   ar
    15    10     9    1
    16     9     8    1
    17     9    11    1
    18     6     5    1
    19     4    15    1
    20     4     5   ar
    21     4     3   ar
    22    15    19   ar
    23     5     1   ar
    24    19    18   ar
    25     1     7    1
    26    18    17   ar
    27    18    28    1
    28    36    35    1
    29    33    32    1
    30    14    13    1
    31    35    27    1
    32    35    37    1
    33    28    29   ar
    34    28    32   ar
    35    34    29    1
    36    29    30   ar
    37    32    31   ar
    38    27    26    1
    39    31    30   ar
    40    31    41    1
    41    50    49    1
    42    46    45    1
    43    41    42   ar
    44    41    45   ar
    45    49    40    1
    46    49    51    1
    47    48    42    1
    48    42    43   ar
    49    45    44   ar
    50    40    39    1
    51    44    43   ar
    52    44    47    1
    53    43    54    1
    54    54    53    3
