@<TRIPOS>MOLECULE
mol_data/noopt/geoms/mol2/13ld13ld13ld.out
 41 41 0 0 0
SMALL
GASTEIGER

@<TRIPOS>ATOM
      1 C           1.1215   -0.3259    0.0002 C.ar    1  LIG1        0.0450
      2 C           0.7176    0.9721   -0.0005 C.ar    1  LIG1        0.1458
      3 C          -0.7144    0.9744    0.0003 C.ar    1  LIG1        0.0562
      4 C          -1.1226   -0.3223   -0.0003 C.ar    1  LIG1        0.0783
      5 N          -0.0018   -1.1217    0.0001 N.ar    1  LIG1       -0.3559
      6 H          -0.0034   -2.1157   -0.0003 H       1  LIG1        0.1655
      7 H           2.3167   -0.8373    0.0007 H       1  LIG1        0.0844
      8 O           1.4918    2.0165   -0.0003 O.3     1  LIG1       -0.4930
      9 C           2.8590    1.5971   -0.0003 C.3     1  LIG1        0.0789
     10 H           3.4958    2.4569   -0.0003 H       1  LIG1        0.0660
     11 H           3.0520    1.0102    0.8734 H       1  LIG1        0.0660
     12 H           3.0520    1.0102   -0.8739 H       1  LIG1        0.0660
     13 N          -2.1652    2.9444    0.0016 N.3     1  LIG1       -0.1324
     14 C          -1.4853    2.0212    0.0010 C.3     1  LIG1        0.0975
     15 C          -2.3194   -0.8299   -0.0001 C.ar    1  LIG1        0.1120
     16 C          -3.5353   -0.2219   -0.0003 C.ar    1  LIG1        0.2140
     17 C          -4.5290   -1.2530    0.0012 C.ar    1  LIG1        0.0621
     18 C          -3.8767   -2.4457    0.0005 C.ar    1  LIG1        0.0789
     19 N          -2.5238   -2.1913    0.0002 N.ar    1  LIG1       -0.3482
     20 H          -1.8081   -2.8811   -0.0004 H       1  LIG1        0.1661
     21 O          -3.7520    1.0599   -0.0003 O.3     1  LIG1       -0.2849
     22 C          -2.5024    1.7552   -0.0003 C.3     1  LIG1       -0.0400
     23 H          -2.6813    2.8102   -0.0005 H       1  LIG1        0.0250
     24 H          -1.9455    1.4880    0.8734 H       1  LIG1        0.0250
     25 H          -1.9455    1.4878   -0.8739 H       1  LIG1        0.0250
     26 N          -6.9548   -0.9344    0.0036 N.3     2  LIG2       -0.1324
     27 C          -5.8179   -1.0837    0.0025 C.3     2  LIG2        0.0975
     28 C          -4.3398   -3.6604    0.0012 C.ar    1  LIG1        0.1122
     29 C          -5.6206   -4.1160    0.0013 C.ar    1  LIG1        0.2227
     30 C          -5.5655   -5.5470    0.0033 C.ar    1  LIG1        0.1163
     31 C          -4.2535   -5.9029    0.0026 C.ar    1  LIG1        0.0235
     32 N          -3.4996   -4.7510    0.0018 N.ar    1  LIG1       -0.3552
     33 H          -2.5064   -4.7127    0.0010 H       1  LIG1        0.1655
     34 H          -3.6983   -7.0784    0.0036 H       1  LIG1        0.0821
     35 O          -6.6951   -3.3843    0.0012 O.3     1  LIG1       -0.2842
     36 C          -6.3308   -2.0014    0.0011 C.3     2  LIG2       -0.0400
     37 H          -7.2155   -1.3995    0.0009 H       2  LIG2        0.0250
     38 H          -5.7524   -1.7849    0.8749 H       2  LIG2        0.0250
     39 H          -5.7521   -1.7851   -0.8724 H       2  LIG2        0.0250
     40 N          -7.4758   -7.0756    0.0065 N.1     1  LIG1       -0.1907
     41 C          -6.5805   -6.3592    0.0050 C.1     1  LIG1        0.1045
@<TRIPOS>BOND
     1    25    22    1
     2    12     9    1
     3    39    36    1
     4     2     8    1
     5     2     1   ar
     6     2     3   ar
     7    23    22    1
     8    20    19    1
     9    22    14    1
    10    22    24    1
    11    16    21    1
    12    16    15   ar
    13    16    17   ar
    14     9    10    1
    15     9     8    1
    16     9    11    1
    17     6     5    1
    18     4    15    1
    19     4     5   ar
    20     4     3   ar
    21    15    19   ar
    22     5     1   ar
    23    19    18   ar
    24     1     7    1
    25    18    17   ar
    26    18    28    1
    27    37    36    1
    28    33    32    1
    29    14    13    1
    30    36    27    1
    31    36    38    1
    32    28    29   ar
    33    28    32   ar
    34    35    29    1
    35    29    30   ar
    36    32    31   ar
    37    27    26    1
    38    31    30   ar
    39    31    34    1
    40    30    41    1
    41    41    40    3
