@<TRIPOS>MOLECULE
mol_data/noopt/geoms/mol2/13ld13ld-.out
 28 29 0 0 0
SMALL
GASTEIGER

@<TRIPOS>ATOM
      1 C           1.1215   -0.3259    0.0002 C.ar    1  LIG1        0.0457
      2 C           0.7176    0.9721   -0.0005 C.ar    1  LIG1        0.1553
      3 C          -0.7144    0.9744    0.0003 C.ar    1  LIG1        0.1200
      4 C          -1.1226   -0.3223   -0.0003 C.ar    1  LIG1        0.0878
      5 N          -0.0018   -1.1217    0.0001 N.ar    1  LIG1       -0.3553
      6 H          -0.0034   -2.1157   -0.0003 H       1  LIG1        0.1655
      7 H           2.3167   -0.8373    0.0007 H       1  LIG1        0.0845
      8 O           1.4918    2.0165   -0.0003 O.3     1  LIG1       -0.4923
      9 C           2.8590    1.5971   -0.0003 C.3     1  LIG1        0.0789
     10 H           3.4958    2.4569   -0.0003 H       1  LIG1        0.0660
     11 H           3.0520    1.0102    0.8734 H       1  LIG1        0.0660
     12 H           3.0520    1.0102   -0.8739 H       1  LIG1        0.0660
     13 N          -2.1652    2.9444    0.0016 N.1     1  LIG1       -0.1907
     14 C          -1.4853    2.0212    0.0010 C.1     1  LIG1        0.1050
     15 C          -2.3194   -0.8299   -0.0001 C.ar    1  LIG1        0.1078
     16 C          -2.7274   -2.1266   -0.0005 C.ar    1  LIG1        0.1640
     17 C          -4.1594   -2.1244    0.0011 C.ar    1  LIG1        0.1112
     18 C          -4.5635   -0.8264    0.0006 C.ar    1  LIG1        0.0233
     19 N          -3.4402   -0.0305    0.0003 N.ar    1  LIG1       -0.3553
     20 H          -3.4386    0.9635   -0.0001 H       1  LIG1        0.1655
     21 H          -5.7587   -0.3150    0.0014 H       1  LIG1        0.0821
     22 O          -1.9565   -3.1734   -0.0006 O.3     1  LIG1       -0.4916
     23 C          -2.7589   -4.3571   -0.0007 C.3     1  LIG1        0.0789
     24 H          -2.1240   -5.2184   -0.0010 H       1  LIG1        0.0660
     25 H          -3.3764   -4.3695    0.8731 H       1  LIG1        0.0660
     26 H          -3.3767   -4.3691   -0.8742 H       1  LIG1        0.0660
     27 N          -5.6165   -4.0898    0.0034 N.1     1  LIG1       -0.1907
     28 C          -4.9336   -3.1687    0.0023 C.1     1  LIG1        0.1044
@<TRIPOS>BOND
     1    26    23    1
     2    12     9    1
     3    24    23    1
     4    23    22    1
     5    23    25    1
     6    22    16    1
     7     2     8    1
     8     2     1   ar
     9     2     3   ar
    10    16    15   ar
    11    16    17   ar
    12     4    15    1
    13     4     5   ar
    14     4     3   ar
    15     6     5    1
    16     8     9    1
    17     9    10    1
    18     9    11    1
    19    20    19    1
    20    15    19   ar
    21     5     1   ar
    22     1     7    1
    23     3    14    1
    24    19    18   ar
    25    18    17   ar
    26    18    21    1
    27    14    13    3
    28    17    28    1
    29    28    27    3
