@<TRIPOS>MOLECULE
mol_data/noopt/geoms/mol2/13ld6hi-4eh13ll-.out
 59 59 0 0 0
SMALL
GASTEIGER

@<TRIPOS>ATOM
      1 C           1.1215   -0.3259    0.0002 C.ar    1  LIG1        0.0457
      2 C           0.7176    0.9721   -0.0005 C.ar    1  LIG1        0.1552
      3 C          -0.7144    0.9744    0.0003 C.ar    1  LIG1        0.1186
      4 C          -1.1226   -0.3223   -0.0003 C.ar    1  LIG1        0.0710
      5 N          -0.0018   -1.1217    0.0001 N.ar    1  LIG1       -0.3565
      6 H          -0.0034   -2.1157   -0.0003 H       1  LIG1        0.1655
      7 H           2.3167   -0.8373    0.0007 H       1  LIG1        0.0845
      8 O           1.4918    2.0165   -0.0003 O.3     1  LIG1       -0.4923
      9 C           2.8590    1.5971   -0.0003 C.3     1  LIG1        0.0789
     10 H           3.4958    2.4569   -0.0003 H       1  LIG1        0.0660
     11 H           3.0520    1.0102    0.8734 H       1  LIG1        0.0660
     12 H           3.0520    1.0102   -0.8739 H       1  LIG1        0.0660
     13 N          -2.1652    2.9444    0.0016 N.1     1  LIG1       -0.1907
     14 C          -1.4853    2.0212    0.0010 C.1     1  LIG1        0.1050
     15 C          -2.5002   -2.2250   -0.0210 C.ar    1  LIG1        0.1260
     16 C          -2.3194   -0.8299   -0.0001 C.ar    1  LIG1        0.0395
     17 C          -3.4501   -0.0114    0.0210 C.ar    1  LIG1       -0.0441
     18 C          -4.7120   -0.6083    0.0204 C.ar    1  LIG1       -0.0206
     19 C          -4.7903   -2.0130   -0.0016 C.ar    1  LIG1        0.0730
     20 N          -3.7099   -2.8177   -0.0220 N.ar    1  LIG1       -0.2318
     21 H          -3.3484    1.0830    0.0367 H       1  LIG1        0.0629
     22 N          -1.4783   -3.0283   -0.0410 N.pl3   1  LIG1       -0.3426
     23 H          -1.7266   -3.8717   -0.5175 H       1  LIG1        0.1437
     24 H          -0.7174   -2.5880   -0.5175 H       1  LIG1        0.1437
     25 C          -5.7956    0.1102    0.0394 C.3     1  LIG1       -0.0216
     26 H          -6.5695   -0.4249    0.5489 H       1  LIG1        0.0316
     27 H          -6.1051    0.3154   -0.9642 H       1  LIG1        0.0317
     28 H          -5.6038    1.0313    0.5489 H       1  LIG1        0.0317
     29 C          -7.1312   -1.8574   -0.0031 C.3     1  LIG1        0.0228
     30 C          -8.3535   -2.5570   -0.0031 C.3     2  LIG2        0.0000
     31 C          -5.9423   -2.6153   -0.0030 C.2     1  LIG1       -0.0117
     32 C          -8.3926   -3.9495   -0.0037 C.2     1  LIG1        0.0338
     33 H          -9.2828   -1.9918   -0.0029 H       2  LIG2        0.0194
     34 C          -5.9808   -4.0055   -0.0037 C.2     1  LIG1       -0.0346
     35 C          -7.2050   -4.6822   -0.0041 C.2     1  LIG1        0.0349
     36 H          -5.0503   -4.5673   -0.0035 H       1  LIG1        0.0640
     37 C          -7.1587   -0.5577   -0.0027 C.3     1  LIG1       -0.0223
     38 C          -7.1842    0.6432   -0.0025 C.3     1  LIG1       -0.0303
     39 H          -7.2068    1.7130   -0.0022 H       1  LIG1        0.0309
     40 N          -7.2348   -5.9818   -0.0045 N.pl3   1  LIG1       -0.3574
     41 H          -8.0587   -6.2962   -0.4760 H       1  LIG1        0.1423
     42 H          -6.4262   -6.3336   -0.4760 H       1  LIG1        0.1423
     43 C          -9.5387   -4.5630   -0.0038 C.ar    1  LIG1        0.1000
     44 C         -10.8045   -4.0672   -0.0043 C.ar    1  LIG1        0.2454
     45 C         -11.7012   -5.1837   -0.0031 C.ar    1  LIG1        0.1846
     46 C         -10.9439   -6.3127   -0.0037 C.ar    1  LIG1        0.0483
     47 N          -9.6194   -5.9373   -0.0037 N.ar    1  LIG1       -0.3544
     48 H          -8.8444   -6.5597   -0.0042 H       1  LIG1        0.1656
     49 H         -11.2956   -7.5643   -0.0033 H       1  LIG1        0.0845
     50 O         -11.1360   -2.8101   -0.0042 O.3     1  LIG1       -0.2817
     51 C          -9.9542   -2.0049   -0.0042 C.3     3  LIG3       -0.0776
     52 H         -10.2275   -0.9704   -0.0043 H       2  LIG2        0.0194
     53 H          -9.3754   -2.2208    0.8695 H       2  LIG2        0.0194
     54 H          -9.3754   -2.2210   -0.8778 H       2  LIG2        0.0194
     55 O         -13.0002   -5.1314   -0.0021 O.3     1  LIG1       -0.4899
     56 C         -13.4228   -3.7652   -0.0018 C.3     1  LIG1        0.0790
     57 H         -14.4919   -3.7226   -0.0011 H       1  LIG1        0.0660
     58 H         -13.0458   -3.2754    0.8717 H       1  LIG1        0.0660
     59 H         -13.0469   -3.2754   -0.8756 H       1  LIG1        0.0660
@<TRIPOS>BOND
     1    27    25    1
     2    54    51    1
     3    59    56    1
     4    12     9    1
     5    24    22    1
     6    23    22    1
     7    42    40    1
     8    41    40    1
     9    22    15    1
    10    20    15   ar
    11    20    19   ar
    12    15    16   ar
    13    40    35    1
    14    44    50    1
    15    44    43   ar
    16    44    45   ar
    17    52    51    1
    18    48    47    1
    19    51    33    1
    20    51    53    1
    21    35    32    2
    22    35    34    1
    23    43    47   ar
    24    43    32    1
    25    46    47   ar
    26    46    49    1
    27    46    45   ar
    28    34    36    1
    29    34    31    2
    30    45    55    1
    31    29    31    1
    32    29    37    1
    33    31    19    1
    34    37    38    1
    35    37    26    1
    36    38    39    1
    37    55    56    1
    38    56    57    1
    39    56    58    1
    40    19    18   ar
    41     2     8    1
    42     2     1   ar
    43     2     3   ar
    44     6     5    1
    45     8     9    1
    46     9    10    1
    47     9    11    1
    48     4    16    1
    49     4     5   ar
    50     4     3   ar
    51    16    17   ar
    52     5     1   ar
    53     1     7    1
    54     3    14    1
    55    14    13    3
    56    18    17   ar
    57    18    25    1
    58    17    21    1
    59    25    28    1
