@<TRIPOS>MOLECULE
mol_data/noopt/geoms/mol2/13ld13ld-13ld13ld-.out
 54 56 0 0 0
SMALL
GASTEIGER

@<TRIPOS>ATOM
      1 C           1.1215   -0.3259    0.0002 C.ar    1  LIG1        0.0457
      2 C           0.7176    0.9721   -0.0005 C.ar    1  LIG1        0.1553
      3 C          -0.7144    0.9744    0.0003 C.ar    1  LIG1        0.1201
      4 C          -1.1226   -0.3223   -0.0003 C.ar    1  LIG1        0.0899
      5 N          -0.0018   -1.1217    0.0001 N.ar    1  LIG1       -0.3553
      6 H          -0.0034   -2.1157   -0.0003 H       1  LIG1        0.1655
      7 H           2.3167   -0.8373    0.0007 H       1  LIG1        0.0845
      8 O           1.4918    2.0165   -0.0003 O.3     1  LIG1       -0.4923
      9 C           2.8590    1.5971   -0.0003 C.3     1  LIG1        0.0789
     10 H           3.4958    2.4569   -0.0003 H       1  LIG1        0.0660
     11 H           3.0520    1.0102    0.8734 H       1  LIG1        0.0660
     12 H           3.0520    1.0102   -0.8739 H       1  LIG1        0.0660
     13 N          -2.1652    2.9444    0.0016 N.1     1  LIG1       -0.1907
     14 C          -1.4853    2.0212    0.0010 C.1     1  LIG1        0.1050
     15 C          -2.3194   -0.8299   -0.0001 C.ar    1  LIG1        0.1320
     16 C          -2.7274   -2.1266   -0.0005 C.ar    1  LIG1        0.1668
     17 C          -4.1594   -2.1244    0.0011 C.ar    1  LIG1        0.1228
     18 C          -4.5635   -0.8264    0.0006 C.ar    1  LIG1        0.1127
     19 N          -3.4402   -0.0305    0.0003 N.ar    1  LIG1       -0.2385
     20 H          -3.4386    0.9635   -0.0001 H       1  LIG1        0.0194
     21 O          -1.9565   -3.1734   -0.0006 O.3     1  LIG1       -0.4915
     22 C          -2.7589   -4.3571   -0.0007 C.3     1  LIG1        0.0789
     23 H          -2.1240   -5.2184   -0.0010 H       1  LIG1        0.0660
     24 H          -3.3764   -4.3695    0.8731 H       1  LIG1        0.0660
     25 H          -3.3767   -4.3691   -0.8742 H       1  LIG1        0.0660
     26 N          -5.6165   -4.0898    0.0034 N.1     1  LIG1       -0.1907
     27 C          -4.9336   -3.1687    0.0023 C.1     1  LIG1        0.1051
     28 C          -5.7587   -0.3150    0.0014 C.ar    1  LIG1        0.1154
     29 C          -6.1626    0.9830    0.0016 C.ar    1  LIG1        0.2235
     30 C          -7.5946    0.9853    0.0038 C.ar    1  LIG1        0.1257
     31 C          -8.0028   -0.3114    0.0030 C.ar    1  LIG1        0.0884
     32 N          -6.8820   -1.1108    0.0021 N.ar    1  LIG1       -0.3476
     33 H          -6.8836   -2.1048    0.0013 H       1  LIG1        0.1661
     34 O          -5.3884    2.0274    0.0015 O.3     1  LIG1       -0.2842
     35 C          -4.0213    1.6080    0.0014 C.3     2  LIG2       -0.0776
     36 H          -3.3844    2.4678    0.0012 H       1  LIG1        0.0194
     37 H          -3.8281    1.0213    0.8752 H       1  LIG1        0.0194
     38 H          -3.8283    1.0210   -0.8721 H       1  LIG1        0.0194
     39 N          -9.0454    2.9553    0.0072 N.1     1  LIG1       -0.1907
     40 C          -8.3655    2.0321    0.0056 C.1     1  LIG1        0.1052
     41 C          -9.1996   -0.8190    0.0041 C.ar    1  LIG1        0.1078
     42 C          -9.6076   -2.1157    0.0044 C.ar    1  LIG1        0.1640
     43 C         -11.0396   -2.1135    0.0069 C.ar    1  LIG1        0.1112
     44 C         -11.4437   -0.8155    0.0063 C.ar    1  LIG1        0.0233
     45 N         -10.3204   -0.0196    0.0051 N.ar    1  LIG1       -0.3553
     46 H         -10.3188    0.9744    0.0043 H       1  LIG1        0.1655
     47 H         -12.6389   -0.3041    0.0077 H       1  LIG1        0.0821
     48 O          -8.8367   -3.1625    0.0040 O.3     1  LIG1       -0.4916
     49 C          -9.6391   -4.3462    0.0038 C.3     1  LIG1        0.0789
     50 H          -9.0042   -5.2075    0.0034 H       1  LIG1        0.0660
     51 H         -10.2566   -4.3587    0.8777 H       1  LIG1        0.0660
     52 H         -10.2570   -4.3581   -0.8696 H       1  LIG1        0.0660
     53 N         -12.4967   -4.0789    0.0107 N.1     1  LIG1       -0.1907
     54 C         -11.8138   -3.1578    0.0089 C.1     1  LIG1        0.1044
@<TRIPOS>BOND
     1    25    22    1
     2    12     9    1
     3    38    35    1
     4    52    49    1
     5    23    22    1
     6    22    21    1
     7    22    24    1
     8    21    16    1
     9     2     8    1
    10     2     1   ar
    11     2     3   ar
    12    16    15   ar
    13    16    17   ar
    14     4    15    1
    15     4     5   ar
    16     4     3   ar
    17     6     5    1
    18     8     9    1
    19     9    10    1
    20     9    11    1
    21    20    35    1
    22    15    19   ar
    23     5     1   ar
    24     1     7    1
    25     3    14    1
    26    19    18   ar
    27    18    17   ar
    28    18    28    1
    29    14    13    3
    30    17    27    1
    31    36    35    1
    32    33    32    1
    33    35    37    1
    34    28    29   ar
    35    28    32   ar
    36    34    29    1
    37    29    30   ar
    38    32    31   ar
    39    27    26    3
    40    31    30   ar
    41    31    41    1
    42    50    49    1
    43    30    40    1
    44    49    48    1
    45    49    51    1
    46    48    42    1
    47    41    42   ar
    48    41    45   ar
    49    46    45    1
    50    42    43   ar
    51    45    44   ar
    52    40    39    3
    53    44    43   ar
    54    44    47    1
    55    43    54    1
    56    54    53    3
