@<TRIPOS>MOLECULE
mol_data/noopt/geoms/mol2/13ld13ld13ld-13ld.out
 54 55 0 0 0
SMALL
GASTEIGER

@<TRIPOS>ATOM
      1 C           1.1215   -0.3259    0.0002 C.ar    1  LIG1        0.0450
      2 C           0.7176    0.9721   -0.0005 C.ar    1  LIG1        0.1458
      3 C          -0.7144    0.9744    0.0003 C.ar    1  LIG1        0.0562
      4 C          -1.1226   -0.3223   -0.0003 C.ar    1  LIG1        0.0783
      5 N          -0.0018   -1.1217    0.0001 N.ar    1  LIG1       -0.3559
      6 H          -0.0034   -2.1157   -0.0003 H       1  LIG1        0.1655
      7 H           2.3167   -0.8373    0.0007 H       1  LIG1        0.0844
      8 O           1.4918    2.0165   -0.0003 O.3     1  LIG1       -0.4930
      9 C           2.8590    1.5971   -0.0003 C.3     1  LIG1        0.0789
     10 H           3.4958    2.4569   -0.0003 H       1  LIG1        0.0660
     11 H           3.0520    1.0102    0.8734 H       1  LIG1        0.0660
     12 H           3.0520    1.0102   -0.8739 H       1  LIG1        0.0660
     13 N          -2.1652    2.9444    0.0016 N.3     1  LIG1       -0.1324
     14 C          -1.4853    2.0212    0.0010 C.3     1  LIG1        0.0975
     15 C          -2.3194   -0.8299   -0.0001 C.ar    1  LIG1        0.1127
     16 C          -3.5353   -0.2219   -0.0003 C.ar    1  LIG1        0.2234
     17 C          -4.5290   -1.2530    0.0012 C.ar    1  LIG1        0.1258
     18 C          -3.8767   -2.4457    0.0005 C.ar    1  LIG1        0.0905
     19 N          -2.5238   -2.1913    0.0002 N.ar    1  LIG1       -0.3476
     20 H          -1.8081   -2.8811   -0.0004 H       1  LIG1        0.1661
     21 O          -3.7520    1.0599   -0.0003 O.3     1  LIG1       -0.2842
     22 C          -2.5024    1.7552   -0.0003 C.3     1  LIG1       -0.0400
     23 H          -2.6813    2.8102   -0.0005 H       1  LIG1        0.0250
     24 H          -1.9455    1.4880    0.8734 H       1  LIG1        0.0250
     25 H          -1.9455    1.4878   -0.8739 H       1  LIG1        0.0250
     26 N          -6.9548   -0.9344    0.0036 N.1     1  LIG1       -0.1907
     27 C          -5.8179   -1.0837    0.0025 C.1     1  LIG1        0.1052
     28 C          -4.3398   -3.6604    0.0012 C.ar    1  LIG1        0.1321
     29 C          -3.6874   -4.8530    0.0012 C.ar    1  LIG1        0.1668
     30 C          -4.6811   -5.8841    0.0032 C.ar    1  LIG1        0.1228
     31 C          -5.8970   -5.2763    0.0027 C.ar    1  LIG1        0.1127
     32 N          -5.6927   -3.9149    0.0019 N.ar    1  LIG1       -0.2385
     33 H          -6.4084   -3.2251    0.0013 H       2  LIG2        0.0194
     34 O          -2.3984   -5.0223    0.0009 O.3     1  LIG1       -0.4915
     35 C          -2.1007   -6.4210    0.0008 C.3     1  LIG1        0.0789
     36 H          -1.0397   -6.5599    0.0004 H       1  LIG1        0.0660
     37 H          -2.5195   -6.8749    0.8746 H       1  LIG1        0.0660
     38 H          -2.5201   -6.8748   -0.8727 H       1  LIG1        0.0660
     39 N          -4.2732   -8.2965    0.0063 N.1     1  LIG1       -0.1907
     40 C          -4.4643   -7.1660    0.0049 C.1     1  LIG1        0.1051
     41 C          -7.0939   -5.7839    0.0038 C.ar    1  LIG1        0.1149
     42 C          -8.3097   -5.1759    0.0043 C.ar    1  LIG1        0.2228
     43 C          -9.3034   -6.2070    0.0067 C.ar    1  LIG1        0.1163
     44 C          -8.6511   -7.3997    0.0060 C.ar    1  LIG1        0.0235
     45 N          -7.2982   -7.1453    0.0047 N.ar    1  LIG1       -0.3552
     46 H          -6.5825   -7.8351    0.0038 H       1  LIG1        0.1655
     47 H          -9.1142   -8.6144    0.0073 H       1  LIG1        0.0821
     48 O          -8.5264   -3.8941    0.0041 O.3     1  LIG1       -0.2842
     49 C          -7.2769   -3.1988    0.0039 C.3     2  LIG2       -0.0776
     50 H          -7.4557   -2.1438    0.0036 H       2  LIG2        0.0194
     51 H          -6.7200   -3.4658    0.8777 H       2  LIG2        0.0194
     52 H          -6.7199   -3.4663   -0.8696 H       2  LIG2        0.0194
     53 N         -11.7292   -5.8884    0.0107 N.1     1  LIG1       -0.1907
     54 C         -10.5924   -6.0377    0.0089 C.1     1  LIG1        0.1045
@<TRIPOS>BOND
     1    25    22    1
     2    12     9    1
     3    38    35    1
     4    52    49    1
     5     2     8    1
     6     2     1   ar
     7     2     3   ar
     8    23    22    1
     9    20    19    1
    10    22    14    1
    11    22    24    1
    12    16    21    1
    13    16    15   ar
    14    16    17   ar
    15     4    15    1
    16     4     5   ar
    17     4     3   ar
    18    10     9    1
    19     9     8    1
    20     9    11    1
    21     6     5    1
    22    15    19   ar
    23     5     1   ar
    24    19    18   ar
    25     1     7    1
    26    36    35    1
    27    18    17   ar
    28    18    28    1
    29    35    34    1
    30    35    37    1
    31    34    29    1
    32    14    13    1
    33    29    28   ar
    34    29    30   ar
    35    17    27    1
    36    28    32   ar
    37    33    49    1
    38    32    31   ar
    39    27    26    3
    40    31    30   ar
    41    31    41    1
    42    30    40    1
    43    50    49    1
    44    46    45    1
    45    41    42   ar
    46    41    45   ar
    47    49    51    1
    48    48    42    1
    49    42    43   ar
    50    45    44   ar
    51    40    39    3
    52    44    43   ar
    53    44    47    1
    54    43    54    1
    55    54    53    3
