@<TRIPOS>MOLECULE
mol_data/noopt/geoms/mol2/13le13al4fa13fe12id-4df-6ih13lh-.out
 101 104 0 0 0
SMALL
GASTEIGER

@<TRIPOS>ATOM
      1 C           1.1215   -0.3259    0.0002 C.ar    1  LIG1        0.0457
      2 C           0.7176    0.9721   -0.0005 C.ar    1  LIG1        0.1533
      3 C          -0.7144    0.9744    0.0003 C.ar    1  LIG1        0.0929
      4 C          -1.1226   -0.3223   -0.0003 C.ar    1  LIG1        0.0822
      5 N          -0.0018   -1.1217    0.0001 N.ar    1  LIG1       -0.3555
      6 H          -0.0034   -2.1157   -0.0003 H       1  LIG1        0.1655
      7 H           2.3167   -0.8373    0.0007 H       1  LIG1        0.0845
      8 O           1.4918    2.0165   -0.0003 O.3     1  LIG1       -0.4924
      9 C           2.8590    1.5971   -0.0003 C.3     1  LIG1        0.0789
     10 H           3.4958    2.4569   -0.0003 H       1  LIG1        0.0660
     11 H           3.0520    1.0102    0.8734 H       1  LIG1        0.0660
     12 H           3.0520    1.0102   -0.8739 H       1  LIG1        0.0660
     13 C          -1.4853    2.0212    0.0010 C.1     1  LIG1       -0.0638
     14 C          -2.1976    2.9884    0.0016 C.1     1  LIG1       -0.1137
     15 H          -2.8321    3.8500    0.0022 H       1  LIG1        0.1232
     16 C          -2.3194   -0.8299   -0.0001 C.ar    1  LIG1        0.0682
     17 C          -3.5352   -0.2220    0.0163 C.ar    1  LIG1        0.0075
     18 C          -4.5290   -1.2531    0.0088 C.ar    1  LIG1        0.1460
     19 C          -3.8768   -2.4456   -0.0136 C.ar    1  LIG1        0.0927
     20 N          -2.5238   -2.1911   -0.0187 N.ar    1  LIG1       -0.3500
     21 H          -1.8082   -2.8808   -0.0339 H       1  LIG1        0.1661
     22 H          -3.7519    1.0596    0.0366 H       1  LIG1        0.0676
     23 O          -5.8179   -1.0839    0.0207 O.3     1  LIG1       -0.4930
     24 C          -6.1157    0.3148    0.0250 C.3     1  LIG1        0.0789
     25 H          -7.1766    0.4536    0.0346 H       1  LIG1        0.0660
     26 H          -5.6888    0.7677    0.8954 H       1  LIG1        0.0660
     27 H          -5.7044    0.7697   -0.8518 H       1  LIG1        0.0660
     28 C          -5.7323   -3.8810   -0.0350 C.ar    1  LIG1        0.1267
     29 C          -6.1836   -5.2150   -0.0490 C.ar    1  LIG1       -0.0103
     30 C          -4.3399   -3.6602   -0.0280 C.ar    1  LIG1        0.0433
     31 C          -5.2897   -6.2834   -0.0564 C.ar    1  LIG1        0.0054
     32 H          -7.2541   -5.4079   -0.0544 H       1  LIG1        0.0661
     33 C          -3.4471   -4.7265   -0.0353 C.ar    1  LIG1       -0.0484
     34 C          -3.9149   -6.0446   -0.0497 C.ar    1  LIG1       -0.0517
     35 H          -2.3779   -4.5302   -0.0296 H       1  LIG1        0.0625
     36 O          -6.6146   -2.9262   -0.0289 O.3     1  LIG1       -0.5061
     37 H          -7.4967   -3.3050   -0.0274 H       1  LIG1        0.2922
     38 H          -3.0756   -7.0373   -0.0564 H       1  LIG1        0.0624
     39 C          -5.7411   -7.5025   -0.0695 C.ar    1  LIG1        0.0904
     40 C          -7.0174   -7.9703   -0.0787 C.ar    1  LIG1        0.1581
     41 C          -6.9485   -9.4006   -0.0906 C.ar    1  LIG1        0.0949
     42 C          -5.6331   -9.7439   -0.0899 C.ar    1  LIG1        0.1020
     43 N          -4.8904   -8.5848   -0.0765 N.ar    1  LIG1       -0.3478
     44 H          -3.8976   -8.5370   -0.0732 H       1  LIG1        0.1661
     45 O          -8.0989   -7.2490   -0.0756 O.3     1  LIG1       -0.5035
     46 H          -8.8676   -7.8241   -0.0748 H       1  LIG1        0.2923
     47 C          -7.9556  -10.2225   -0.1008 C.1     1  LIG1       -0.0637
     48 C          -8.8862  -10.9820   -0.1101 C.1     1  LIG1       -0.1137
     49 H          -9.7152  -11.6585   -0.1185 H       1  LIG1        0.1232
     50 C          -5.0666  -10.9139   -0.0984 C.ar    1  LIG1        0.1563
     51 C          -5.5089  -12.2206   -0.1049 C.ar    1  LIG1        0.0026
     52 C          -4.3277  -13.0583   -0.1132 C.ar    1  LIG1        0.0295
     53 C          -3.2415  -12.2075   -0.1114 C.ar    1  LIG1        0.1415
     54 O          -3.6715  -10.8801   -0.1024 O.2     1  LIG1       -0.4527
     55 C          -6.7381  -12.6448   -0.1038 C.3     1  LIG1       -0.0357
     56 H          -6.7898  -13.5868    0.4010 H       1  LIG1        0.0279
     57 H          -7.0760  -12.7615   -1.1123 H       1  LIG1        0.0279
     58 H          -7.3598  -11.9351    0.4009 H       1  LIG1        0.0279
     59 N          -4.3148  -15.5048   -0.1276 N.3     1  LIG1       -0.1261
     60 C          -4.3209  -14.3582   -0.1208 C.3     1  LIG1        0.1384
     61 C          -1.3901  -13.6482   -0.0963 C.ar    1  LIG1       -0.0086
     62 C           0.0143  -13.7540   -0.1006 C.ar    1  LIG1       -0.0478
     63 C          -1.9499  -12.3544   -0.1159 C.ar    1  LIG1        0.0234
     64 C           0.8271  -12.6230   -0.1241 C.ar    1  LIG1       -0.0114
     65 H           0.4671  -14.7429   -0.0855 H       1  LIG1        0.0627
     66 C          -1.1389  -11.2249   -0.1393 C.ar    1  LIG1       -0.0424
     67 C           0.2542  -11.3507   -0.1437 C.ar    1  LIG1       -0.0091
     68 H          -1.5946  -10.2382   -0.1541 H       1  LIG1        0.0631
     69 N          -2.7181  -15.7026   -0.0548 N.3     1  LIG1       -0.1262
     70 C          -2.0957  -14.7398   -0.0743 C.3     1  LIG1        0.1351
     71 O           1.0073  -10.2913   -0.1655 O.3     2  HOH2       -0.4105
     72 H           0.4554   -9.5058   -0.1708 H       0  HOH0        0.2052
     73 C           2.9530  -11.6234   -0.1293 C.3     1  LIG1        0.1171
     74 C           2.1202  -12.7574   -0.1276 C.2     1  LIG1       -0.0097
     75 C           2.7141  -14.0208   -0.1293 C.2     1  LIG1       -0.0553
     76 C           4.1073  -14.1084   -0.1329 C.3     3  LIG3        0.0000
     77 C           4.8550  -12.9166   -0.1346 C.2     1  LIG1        0.1136
     78 N           4.2985  -11.6896   -0.1328 N.2     1  LIG1       -0.2655
     79 H           2.0958  -14.9296   -0.1290 H       1  LIG1        0.0621
     80 C           2.4468  -10.4257   -0.1277 C.3     1  LIG1       -0.0183
     81 H           1.5035  -10.4378    0.3772 H       0  HOH0        0.2052
     82 H           2.3074  -10.0960   -1.1361 H       1  LIG1        0.0294
     83 H           3.1131   -9.7577    0.3771 H       1  LIG1        0.0294
     84 N           4.7082  -15.2612   -0.1349 N.3     4  LIG4       -0.3437
     85 H           4.1379  -15.9335   -0.6068 H       2  HOH2        0.1146
     86 H           5.5859  -15.1787   -0.6068 H       3  LIG3        0.0265
     87 C           6.1547  -12.9464   -0.1379 C.ar    1  LIG1        0.1159
     88 C           7.0128  -14.0007   -0.1238 C.ar    1  LIG1        0.2260
     89 C           8.3427  -13.4699   -0.1349 C.ar    1  LIG1        0.0902
     90 C           8.2389  -12.1146   -0.1569 C.ar    1  LIG1        0.0269
     91 N           6.9011  -11.7898   -0.1584 N.ar    1  LIG1       -0.3547
     92 H           6.5325  -10.8668   -0.1726 H       1  LIG1        0.1655
     93 H           9.1607  -11.1981   -0.1736 H       1  LIG1        0.0827
     94 O           6.6829  -15.2580   -0.1027 O.3     1  LIG1       -0.2836
     95 C           5.2579  -15.3775   -0.0950 C.3     5  LIG5       -0.0531
     96 H           4.9869  -16.4125   -0.0778 H       3  LIG3        0.0265
     97 H           4.8639  -14.8912    0.7728 H       2  HOH2        0.1146
     98 H           4.8567  -14.9184   -0.9742 H       2  HOH2        0.1146
     99 N           9.4479  -14.1544   -0.1259 N.pl3   1  LIG1       -0.3538
    100 H           9.3040  -15.0257   -0.5951 H       1  LIG1        0.1425
    101 H          10.1639  -13.6375   -0.5951 H       1  LIG1        0.1425
@<TRIPOS>BOND
     1    82    80    1
     2    57    55    1
     3    98    84    1
     4    12     9    1
     5    27    24    1
     6    86    95    1
     7    85    84    1
     8   101    99    1
     9   100    99    1
    10    93    90    1
    11    92    91    1
    12    72    71    1
    13    71    81    1
    14    91    90   ar
    15    91    87   ar
    16    90    89   ar
    17    68    66    1
    18    67    66   ar
    19    67    64   ar
    20    66    63   ar
    21    87    77    1
    22    87    88   ar
    23    84    97    1
    24    89    99    1
    25    89    88   ar
    26    77    78    2
    27    78    73    1
    28    75    79    1
    29    75    74    2
    30    73    80    1
    31    73    74    1
    32    80    83    1
    33    59    60    1
    34    59    69    1
    35    74    64    1
    36    64    62   ar
    37    88    94    1
    38    60    52    1
    39    49    48    1
    40    63    53    1
    41    63    61   ar
    42    52    53   ar
    43    52    51   ar
    44    53    54   ar
    45    48    47    3
    46    51    55    1
    47    51    50   ar
    48    55    58    1
    49    55    56    1
    50    54    50   ar
    51    47    41    1
    52    62    61   ar
    53    62    65    1
    54    50    42    1
    55    61    70    1
    56    95    96    1
    57    41    42   ar
    58    41    40   ar
    59    42    43   ar
    60    40    45    1
    61    40    39   ar
    62    43    44    1
    63    43    39   ar
    64    45    46    1
    65    70    69    1
    66    39    31    1
    67    31    34   ar
    68    31    29   ar
    69    38    34    1
    70    32    29    1
    71    34    33   ar
    72    29    28   ar
    73    33    35    1
    74    33    30   ar
    75    28    36    1
    76    28    30   ar
    77    21    20    1
    78    36    37    1
    79    30    19    1
    80    20    19   ar
    81    20    16   ar
    82    19    18   ar
    83     2     8    1
    84     2     1   ar
    85     2     3   ar
    86     6     5    1
    87     8     9    1
    88     9    10    1
    89     9    11    1
    90     4    16    1
    91     4     5   ar
    92     4     3   ar
    93    16    17   ar
    94     5     1   ar
    95     1     7    1
    96     3    13    1
    97    13    14    3
    98    14    15    1
    99    18    17   ar
   100    18    23    1
   101    17    22    1
   102    23    24    1
   103    24    25    1
   104    24    26    1
