@<TRIPOS>MOLECULE
mol_data/noopt/geoms/mol2/13le13le13le.out
 44 44 0 0 0
SMALL
GASTEIGER

@<TRIPOS>ATOM
      1 C           1.1215   -0.3259    0.0002 C.ar    1  LIG1        0.0450
      2 C           0.7176    0.9721   -0.0005 C.ar    1  LIG1        0.1458
      3 C          -0.7144    0.9744    0.0003 C.ar    1  LIG1        0.0562
      4 C          -1.1226   -0.3223   -0.0003 C.ar    1  LIG1        0.0783
      5 N          -0.0018   -1.1217    0.0001 N.ar    1  LIG1       -0.3559
      6 H          -0.0034   -2.1157   -0.0003 H       1  LIG1        0.1655
      7 H           2.3167   -0.8373    0.0007 H       1  LIG1        0.0844
      8 O           1.4918    2.0165   -0.0003 O.3     1  LIG1       -0.4930
      9 C           2.8590    1.5971   -0.0003 C.3     1  LIG1        0.0789
     10 H           3.4958    2.4569   -0.0003 H       1  LIG1        0.0660
     11 H           3.0520    1.0102    0.8734 H       1  LIG1        0.0660
     12 H           3.0520    1.0102   -0.8739 H       1  LIG1        0.0660
     13 C          -1.4853    2.0212    0.0010 C.3     1  LIG1       -0.0163
     14 C          -2.1976    2.9884    0.0016 C.3     1  LIG1       -0.0273
     15 H          -2.8321    3.8500    0.0022 H       1  LIG1        0.0312
     16 C          -2.3194   -0.8299   -0.0001 C.ar    1  LIG1        0.1120
     17 C          -3.5353   -0.2219   -0.0003 C.ar    1  LIG1        0.2140
     18 C          -4.5290   -1.2530    0.0012 C.ar    1  LIG1        0.0621
     19 C          -3.8767   -2.4457    0.0005 C.ar    1  LIG1        0.0789
     20 N          -2.5238   -2.1913    0.0002 N.ar    1  LIG1       -0.3482
     21 H          -1.8081   -2.8811   -0.0004 H       1  LIG1        0.1661
     22 O          -3.7520    1.0599   -0.0003 O.3     1  LIG1       -0.2849
     23 C          -2.5024    1.7552   -0.0003 C.3     1  LIG1       -0.0582
     24 H          -2.6813    2.8102   -0.0005 H       1  LIG1        0.0236
     25 H          -1.9455    1.4880    0.8734 H       1  LIG1        0.0236
     26 H          -1.9455    1.4878   -0.8739 H       1  LIG1        0.0236
     27 C          -5.8179   -1.0837    0.0025 C.3     2  LIG2       -0.0163
     28 C          -7.0089   -0.9273    0.0037 C.3     2  LIG2       -0.0273
     29 H          -8.0698   -0.7879    0.0048 H       2  LIG2        0.0312
     30 C          -4.3398   -3.6604    0.0012 C.ar    1  LIG1        0.1121
     31 C          -5.6206   -4.1160    0.0013 C.ar    1  LIG1        0.2207
     32 C          -5.5655   -5.5470    0.0033 C.ar    1  LIG1        0.0892
     33 C          -4.2535   -5.9029    0.0026 C.ar    1  LIG1        0.0215
     34 N          -3.4996   -4.7510    0.0018 N.ar    1  LIG1       -0.3553
     35 H          -2.5064   -4.7127    0.0010 H       1  LIG1        0.1655
     36 H          -3.6983   -7.0784    0.0036 H       1  LIG1        0.0820
     37 O          -6.6951   -3.3843    0.0012 O.3     1  LIG1       -0.2843
     38 C          -6.3308   -2.0014    0.0011 C.3     2  LIG2       -0.0582
     39 H          -7.2155   -1.3995    0.0009 H       2  LIG2        0.0236
     40 H          -5.7524   -1.7849    0.8749 H       2  LIG2        0.0236
     41 H          -5.7521   -1.7851   -0.8724 H       2  LIG2        0.0236
     42 C          -6.5805   -6.3592    0.0050 C.1     1  LIG1       -0.0643
     43 C          -7.5184   -7.1097    0.0066 C.1     1  LIG1       -0.1137
     44 H          -8.3539   -7.7782    0.0080 H       1  LIG1        0.1232
@<TRIPOS>BOND
     1    26    23    1
     2    12     9    1
     3    41    38    1
     4     2     8    1
     5     2     1   ar
     6     2     3   ar
     7    24    23    1
     8    21    20    1
     9    23    13    1
    10    23    25    1
    11    17    22    1
    12    17    16   ar
    13    17    18   ar
    14     9    10    1
    15     9     8    1
    16     9    11    1
    17     6     5    1
    18     4    16    1
    19     4     5   ar
    20     4     3   ar
    21    16    20   ar
    22     5     1   ar
    23    20    19   ar
    24     1     7    1
    25    19    18   ar
    26    19    30    1
    27    39    38    1
    28    35    34    1
    29    13    14    1
    30    38    27    1
    31    38    40    1
    32    30    31   ar
    33    30    34   ar
    34    37    31    1
    35    31    32   ar
    36    14    15    1
    37    34    33   ar
    38    27    28    1
    39    33    32   ar
    40    33    36    1
    41    32    42    1
    42    28    29    1
    43    42    43    3
    44    43    44    1
