@<TRIPOS>MOLECULE
mol_data/noopt/geoms/mol2/13le13le.out
 30 30 0 0 0
SMALL
GASTEIGER

@<TRIPOS>ATOM
      1 C           1.1215   -0.3259    0.0002 C.ar    1  LIG1        0.0450
      2 C           0.7176    0.9721   -0.0005 C.ar    1  LIG1        0.1458
      3 C          -0.7144    0.9744    0.0003 C.ar    1  LIG1        0.0562
      4 C          -1.1226   -0.3223   -0.0003 C.ar    1  LIG1        0.0783
      5 N          -0.0018   -1.1217    0.0001 N.ar    1  LIG1       -0.3559
      6 H          -0.0034   -2.1157   -0.0003 H       1  LIG1        0.1655
      7 H           2.3167   -0.8373    0.0007 H       1  LIG1        0.0844
      8 O           1.4918    2.0165   -0.0003 O.3     1  LIG1       -0.4930
      9 C           2.8590    1.5971   -0.0003 C.3     1  LIG1        0.0789
     10 H           3.4958    2.4569   -0.0003 H       1  LIG1        0.0660
     11 H           3.0520    1.0102    0.8734 H       1  LIG1        0.0660
     12 H           3.0520    1.0102   -0.8739 H       1  LIG1        0.0660
     13 C          -1.4853    2.0212    0.0010 C.3     1  LIG1       -0.0163
     14 C          -2.1976    2.9884    0.0016 C.3     1  LIG1       -0.0273
     15 H          -2.8321    3.8500    0.0022 H       1  LIG1        0.0312
     16 C          -2.3194   -0.8299   -0.0001 C.ar    1  LIG1        0.1121
     17 C          -3.5353   -0.2219   -0.0003 C.ar    1  LIG1        0.2207
     18 C          -4.5290   -1.2530    0.0012 C.ar    1  LIG1        0.0892
     19 C          -3.8767   -2.4457    0.0005 C.ar    1  LIG1        0.0215
     20 N          -2.5238   -2.1913    0.0002 N.ar    1  LIG1       -0.3553
     21 H          -1.8081   -2.8811   -0.0004 H       1  LIG1        0.1655
     22 H          -4.3398   -3.6604    0.0012 H       1  LIG1        0.0820
     23 O          -3.7520    1.0599   -0.0003 O.3     1  LIG1       -0.2843
     24 C          -2.5024    1.7552   -0.0003 C.3     1  LIG1       -0.0582
     25 H          -2.6813    2.8102   -0.0005 H       1  LIG1        0.0236
     26 H          -1.9455    1.4880    0.8734 H       1  LIG1        0.0236
     27 H          -1.9455    1.4878   -0.8739 H       1  LIG1        0.0236
     28 C          -5.8179   -1.0837    0.0025 C.1     1  LIG1       -0.0643
     29 C          -7.0089   -0.9273    0.0037 C.1     1  LIG1       -0.1137
     30 H          -8.0698   -0.7879    0.0048 H       1  LIG1        0.1232
@<TRIPOS>BOND
     1    27    24    1
     2    12     9    1
     3     2     8    1
     4     2     1   ar
     5     2     3   ar
     6    25    24    1
     7    21    20    1
     8    24    13    1
     9    24    26    1
    10    17    23    1
    11    17    16   ar
    12    17    18   ar
    13     9    10    1
    14     9     8    1
    15     9    11    1
    16     6     5    1
    17     4    16    1
    18     4     5   ar
    19     4     3   ar
    20    16    20   ar
    21     5     1   ar
    22    20    19   ar
    23     1     7    1
    24    19    18   ar
    25    19    22    1
    26    13    14    1
    27    18    28    1
    28    14    15    1
    29    28    29    3
    30    29    30    1
