@<TRIPOS>MOLECULE
mol_data/noopt/geoms/mol2/13le13le-.out
 30 31 0 0 0
SMALL
GASTEIGER

@<TRIPOS>ATOM
      1 C           1.1215   -0.3259    0.0002 C.ar    1  LIG1        0.0457
      2 C           0.7176    0.9721   -0.0005 C.ar    1  LIG1        0.1533
      3 C          -0.7144    0.9744    0.0003 C.ar    1  LIG1        0.0930
      4 C          -1.1226   -0.3223   -0.0003 C.ar    1  LIG1        0.0857
      5 N          -0.0018   -1.1217    0.0001 N.ar    1  LIG1       -0.3554
      6 H          -0.0034   -2.1157   -0.0003 H       1  LIG1        0.1655
      7 H           2.3167   -0.8373    0.0007 H       1  LIG1        0.0845
      8 O           1.4918    2.0165   -0.0003 O.3     1  LIG1       -0.4924
      9 C           2.8590    1.5971   -0.0003 C.3     1  LIG1        0.0789
     10 H           3.4958    2.4569   -0.0003 H       1  LIG1        0.0660
     11 H           3.0520    1.0102    0.8734 H       1  LIG1        0.0660
     12 H           3.0520    1.0102   -0.8739 H       1  LIG1        0.0660
     13 C          -1.4853    2.0212    0.0010 C.1     1  LIG1       -0.0638
     14 C          -2.1976    2.9884    0.0016 C.1     1  LIG1       -0.1137
     15 H          -2.8321    3.8500    0.0022 H       1  LIG1        0.1232
     16 C          -2.3194   -0.8299   -0.0001 C.ar    1  LIG1        0.1077
     17 C          -2.7274   -2.1266   -0.0005 C.ar    1  LIG1        0.1620
     18 C          -4.1594   -2.1244    0.0011 C.ar    1  LIG1        0.0842
     19 C          -4.5635   -0.8264    0.0006 C.ar    1  LIG1        0.0213
     20 N          -3.4402   -0.0305    0.0003 N.ar    1  LIG1       -0.3554
     21 H          -3.4386    0.9635   -0.0001 H       1  LIG1        0.1655
     22 H          -5.7587   -0.3150    0.0014 H       1  LIG1        0.0820
     23 O          -1.9565   -3.1734   -0.0006 O.3     1  LIG1       -0.4917
     24 C          -2.7589   -4.3571   -0.0007 C.3     1  LIG1        0.0789
     25 H          -2.1240   -5.2184   -0.0010 H       1  LIG1        0.0660
     26 H          -3.3764   -4.3695    0.8731 H       1  LIG1        0.0660
     27 H          -3.3767   -4.3691   -0.8742 H       1  LIG1        0.0660
     28 C          -4.9336   -3.1687    0.0023 C.1     1  LIG1       -0.0645
     29 C          -5.6490   -4.1337    0.0035 C.1     1  LIG1       -0.1137
     30 H          -6.2862   -4.9932    0.0045 H       1  LIG1        0.1232
@<TRIPOS>BOND
     1    27    24    1
     2    12     9    1
     3    25    24    1
     4    24    23    1
     5    24    26    1
     6    23    17    1
     7     2     8    1
     8     2     1   ar
     9     2     3   ar
    10    17    16   ar
    11    17    18   ar
    12     4    16    1
    13     4     5   ar
    14     4     3   ar
    15     6     5    1
    16     8     9    1
    17     9    10    1
    18     9    11    1
    19    21    20    1
    20    16    20   ar
    21     5     1   ar
    22     1     7    1
    23     3    13    1
    24    20    19   ar
    25    19    18   ar
    26    19    22    1
    27    13    14    3
    28    18    28    1
    29    14    15    1
    30    28    29    3
    31    29    30    1
