@<TRIPOS>MOLECULE
mol_data/noopt/geoms/mol2/13le6fe6dd6lf-.out
 53 56 0 0 0
SMALL
GASTEIGER

@<TRIPOS>ATOM
      1 C           1.1215   -0.3259    0.0002 C.ar    1  LIG1        0.0456
      2 C           0.7176    0.9721   -0.0005 C.ar    1  LIG1        0.1532
      3 C          -0.7144    0.9744    0.0003 C.ar    1  LIG1        0.0916
      4 C          -1.1226   -0.3223   -0.0003 C.ar    1  LIG1        0.0709
      5 N          -0.0018   -1.1217    0.0001 N.ar    1  LIG1       -0.3565
      6 H          -0.0034   -2.1157   -0.0003 H       1  LIG1        0.1655
      7 H           2.3167   -0.8373    0.0007 H       1  LIG1        0.0845
      8 O           1.4918    2.0165   -0.0003 O.3     1  LIG1       -0.4924
      9 C           2.8590    1.5971   -0.0003 C.3     1  LIG1        0.0789
     10 H           3.4958    2.4569   -0.0003 H       1  LIG1        0.0660
     11 H           3.0520    1.0102    0.8734 H       1  LIG1        0.0660
     12 H           3.0520    1.0102   -0.8739 H       1  LIG1        0.0660
     13 C          -1.4853    2.0212    0.0010 C.1     1  LIG1       -0.0639
     14 C          -2.1976    2.9884    0.0016 C.1     1  LIG1       -0.1137
     15 H          -2.8321    3.8500    0.0022 H       1  LIG1        0.1232
     16 C          -2.5001   -2.2252    0.0002 C.ar    1  LIG1        0.2223
     17 C          -2.3194   -0.8299   -0.0001 C.ar    1  LIG1        0.0621
     18 C          -3.4502   -0.0112    0.0002 C.ar    1  LIG1       -0.0300
     19 C          -4.7120   -0.6082    0.0005 C.ar    1  LIG1        0.0516
     20 C          -4.7903   -2.0130    0.0006 C.ar    1  LIG1        0.0929
     21 N          -3.7098   -2.8179    0.0005 N.ar    1  LIG1       -0.2111
     22 H          -3.3485    1.0833   -0.0010 H       1  LIG1        0.0639
     23 O          -1.4781   -3.0287    0.0000 O.3     1  LIG1       -0.4919
     24 H          -0.6669   -2.5153   -0.0000 H       1  LIG1        0.2937
     25 C          -5.7954    0.1103    0.0006 C.1     1  LIG1       -0.0675
     26 C          -6.7965    0.7742    0.0007 C.1     1  LIG1       -0.1138
     27 H          -7.6882    1.3656    0.0007 H       1  LIG1        0.1232
     28 C          -6.0100   -4.0206    0.0013 C.ar    1  LIG1        0.1500
     29 C          -5.9423   -2.6153    0.0010 C.ar    1  LIG1        0.0388
     30 C          -7.1354   -1.8904    0.0013 C.ar    1  LIG1       -0.0303
     31 C          -8.3451   -2.5870    0.0019 C.ar    1  LIG1        0.0785
     32 C          -8.3099   -3.9936    0.0020 C.ar    1  LIG1        0.0950
     33 N          -7.1681   -4.7088    0.0019 N.ar    1  LIG1       -0.2342
     34 H          -7.1222   -0.7912    0.0001 H       1  LIG1        0.0638
     35 N          -3.9712   -5.3729    0.0009 N.1     1  LIG1       -0.1893
     36 C          -4.9267   -4.7392    0.0011 C.1     1  LIG1        0.1198
     37 N         -10.4863   -1.4035    0.0022 N.1     1  LIG1       -0.1908
     38 C          -9.4828   -1.9582    0.0021 C.1     1  LIG1        0.1013
     39 C          -9.3641   -6.0928   -0.0181 C.ar    1  LIG1        0.2241
     40 C          -9.4097   -4.6868    0.0026 C.ar    1  LIG1        0.0666
     41 C         -10.6572   -4.0604    0.0240 C.ar    1  LIG1       -0.0043
     42 C         -11.8068   -4.8523    0.0237 C.ar    1  LIG1        0.1357
     43 C         -11.6585   -6.2512    0.0019 C.ar    1  LIG1        0.0728
     44 N         -10.4629   -6.8721   -0.0186 N.ar    1  LIG1       -0.2171
     45 H         -10.7325   -2.9639    0.0395 H       1  LIG1        0.0663
     46 H         -12.6989   -7.0307    0.0009 H       1  LIG1        0.0868
     47 O          -8.2264   -6.7216   -0.0382 O.3     1  LIG1       -0.4792
     48 C          -8.4609   -8.1322   -0.0457 C.3     1  LIG1        0.0804
     49 H          -7.5243   -8.6494   -0.0625 H       1  LIG1        0.0660
     50 H          -9.0049   -8.4081    0.8334 H       1  LIG1        0.0660
     51 H          -9.0289   -8.3948   -0.9136 H       1  LIG1        0.0660
     52 O         -12.9914   -4.3172    0.0429 O.3     1  LIG1       -0.5052
     53 H         -13.6559   -5.0100    0.0477 H       1  LIG1        0.2922
@<TRIPOS>BOND
     1    51    48    1
     2    12     9    1
     3    49    48    1
     4    48    47    1
     5    48    50    1
     6    47    39    1
     7    44    39   ar
     8    44    43   ar
     9    39    40   ar
    10    22    18    1
    11     2     8    1
    12     2     1   ar
    13     2     3   ar
    14     9    10    1
    15     9     8    1
    16     9    11    1
    17     6     5    1
    18     4    17    1
    19     4     5   ar
    20     4     3   ar
    21    17    16   ar
    22    17    18   ar
    23    24    23    1
    24    23    16    1
    25    34    30    1
    26     5     1   ar
    27    16    21   ar
    28    18    19   ar
    29     1     7    1
    30     3    13    1
    31    21    20   ar
    32    19    20   ar
    33    19    25    1
    34    20    29    1
    35    25    26    3
    36    26    27    1
    37    35    36    3
    38    46    43    1
    39    29    28   ar
    40    29    30   ar
    41    13    14    3
    42    36    28    1
    43    28    33   ar
    44    30    31   ar
    45    14    15    1
    46    33    32   ar
    47    31    32   ar
    48    31    38    1
    49    43    42   ar
    50    32    40    1
    51    38    37    3
    52    40    41   ar
    53    42    41   ar
    54    42    52    1
    55    41    45    1
    56    52    53    1
