@<TRIPOS>MOLECULE
mol_data/noopt/geoms/mol2/13le13le13le-13le-.out
 58 60 0 0 0
SMALL
GASTEIGER

@<TRIPOS>ATOM
      1 C           1.1215   -0.3259    0.0002 C.ar    1  LIG1        0.0450
      2 C           0.7176    0.9721   -0.0005 C.ar    1  LIG1        0.1458
      3 C          -0.7144    0.9744    0.0003 C.ar    1  LIG1        0.0562
      4 C          -1.1226   -0.3223   -0.0003 C.ar    1  LIG1        0.0783
      5 N          -0.0018   -1.1217    0.0001 N.ar    1  LIG1       -0.3559
      6 H          -0.0034   -2.1157   -0.0003 H       1  LIG1        0.1655
      7 H           2.3167   -0.8373    0.0007 H       1  LIG1        0.0844
      8 O           1.4918    2.0165   -0.0003 O.3     1  LIG1       -0.4930
      9 C           2.8590    1.5971   -0.0003 C.3     1  LIG1        0.0789
     10 H           3.4958    2.4569   -0.0003 H       1  LIG1        0.0660
     11 H           3.0520    1.0102    0.8734 H       1  LIG1        0.0660
     12 H           3.0520    1.0102   -0.8739 H       1  LIG1        0.0660
     13 C          -1.4853    2.0212    0.0010 C.3     1  LIG1       -0.0163
     14 C          -2.1976    2.9884    0.0016 C.3     1  LIG1       -0.0273
     15 H          -2.8321    3.8500    0.0022 H       1  LIG1        0.0312
     16 C          -2.3194   -0.8299   -0.0001 C.ar    1  LIG1        0.1126
     17 C          -3.5353   -0.2219   -0.0003 C.ar    1  LIG1        0.2214
     18 C          -4.5290   -1.2530    0.0012 C.ar    1  LIG1        0.0987
     19 C          -3.8767   -2.4457    0.0005 C.ar    1  LIG1        0.0864
     20 N          -2.5238   -2.1913    0.0002 N.ar    1  LIG1       -0.3477
     21 H          -1.8081   -2.8811   -0.0004 H       1  LIG1        0.1661
     22 O          -3.7520    1.0599   -0.0003 O.3     1  LIG1       -0.2843
     23 C          -2.5024    1.7552   -0.0003 C.3     1  LIG1       -0.0582
     24 H          -2.6813    2.8102   -0.0005 H       1  LIG1        0.0236
     25 H          -1.9455    1.4880    0.8734 H       1  LIG1        0.0236
     26 H          -1.9455    1.4878   -0.8739 H       1  LIG1        0.0236
     27 C          -5.8179   -1.0837    0.0025 C.1     1  LIG1       -0.0636
     28 C          -7.0089   -0.9273    0.0037 C.1     1  LIG1       -0.1137
     29 H          -8.0698   -0.7879    0.0048 H       1  LIG1        0.1232
     30 C          -4.3398   -3.6604    0.0012 C.ar    1  LIG1        0.1082
     31 C          -3.6874   -4.8530    0.0012 C.ar    1  LIG1        0.1627
     32 C          -4.6811   -5.8841    0.0032 C.ar    1  LIG1        0.0937
     33 C          -5.8970   -5.2763    0.0027 C.ar    1  LIG1        0.0862
     34 N          -5.6927   -3.9149    0.0019 N.ar    1  LIG1       -0.3478
     35 H          -6.4084   -3.2251    0.0013 H       1  LIG1        0.1661
     36 O          -2.3984   -5.0223    0.0009 O.3     1  LIG1       -0.4917
     37 C          -2.1007   -6.4210    0.0008 C.3     1  LIG1        0.0789
     38 H          -1.0397   -6.5599    0.0004 H       1  LIG1        0.0660
     39 H          -2.5195   -6.8749    0.8746 H       1  LIG1        0.0660
     40 H          -2.5201   -6.8748   -0.8727 H       1  LIG1        0.0660
     41 C          -4.4643   -7.1660    0.0049 C.1     1  LIG1       -0.0638
     42 C          -4.2641   -8.3503    0.0064 C.1     1  LIG1       -0.1137
     43 H          -4.0857   -9.4054    0.0077 H       1  LIG1        0.1232
     44 C          -7.0939   -5.7839    0.0038 C.ar    1  LIG1        0.1077
     45 C          -7.5019   -7.0806    0.0041 C.ar    1  LIG1        0.1620
     46 C          -8.9339   -7.0784    0.0067 C.ar    1  LIG1        0.0842
     47 C          -9.3380   -5.7804    0.0061 C.ar    1  LIG1        0.0213
     48 N          -8.2146   -4.9846    0.0048 N.ar    1  LIG1       -0.3554
     49 H          -8.2131   -3.9906    0.0040 H       1  LIG1        0.1655
     50 H         -10.5331   -5.2690    0.0075 H       1  LIG1        0.0820
     51 O          -6.7309   -8.1274    0.0038 O.3     1  LIG1       -0.4917
     52 C          -7.5333   -9.3111    0.0036 C.3     1  LIG1        0.0789
     53 H          -6.8985  -10.1724    0.0031 H       1  LIG1        0.0660
     54 H          -8.1508   -9.3236    0.8774 H       1  LIG1        0.0660
     55 H          -8.1512   -9.3230   -0.8699 H       1  LIG1        0.0660
     56 C          -9.7081   -8.1227    0.0087 C.1     1  LIG1       -0.0645
     57 C         -10.4234   -9.0877    0.0106 C.1     1  LIG1       -0.1137
     58 H         -11.0606   -9.9472    0.0122 H       1  LIG1        0.1232
@<TRIPOS>BOND
     1    26    23    1
     2    12     9    1
     3    40    37    1
     4    55    52    1
     5     2     8    1
     6     2     1   ar
     7     2     3   ar
     8    24    23    1
     9    21    20    1
    10    23    13    1
    11    23    25    1
    12    17    22    1
    13    17    16   ar
    14    17    18   ar
    15     8     9    1
    16     9    10    1
    17     9    11    1
    18     6     5    1
    19     4    16    1
    20     4     5   ar
    21     4     3   ar
    22    16    20   ar
    23     5     1   ar
    24    20    19   ar
    25     1     7    1
    26    38    37    1
    27    19    18   ar
    28    19    30    1
    29    37    36    1
    30    37    39    1
    31    36    31    1
    32    13    14    1
    33    31    30   ar
    34    31    32   ar
    35    18    27    1
    36    30    34   ar
    37    35    34    1
    38    14    15    1
    39    34    33   ar
    40    27    28    3
    41    33    32   ar
    42    33    44    1
    43    53    52    1
    44    32    41    1
    45    52    51    1
    46    52    54    1
    47    28    29    1
    48    51    45    1
    49    44    45   ar
    50    44    48   ar
    51    49    48    1
    52    45    46   ar
    53    48    47   ar
    54    41    42    3
    55    47    46   ar
    56    47    50    1
    57    42    43    1
    58    46    56    1
    59    56    57    3
    60    57    58    1
