@<TRIPOS>MOLECULE
mol_data/noopt/geoms/mol2/13le4hf(30)12aa(70)12al(30).out
 47 50 0 0 0
SMALL
GASTEIGER

@<TRIPOS>ATOM
      1 C           1.1215   -0.3259    0.0002 C.ar    1  LIG1        0.0456
      2 C           0.7176    0.9721   -0.0005 C.ar    1  LIG1        0.1532
      3 C          -0.7144    0.9744    0.0003 C.ar    1  LIG1        0.0915
      4 C          -1.1226   -0.3223   -0.0003 C.ar    1  LIG1        0.0676
      5 N          -0.0018   -1.1217    0.0001 N.ar    1  LIG1       -0.3566
      6 H          -0.0034   -2.1157   -0.0003 H       1  LIG1        0.1655
      7 H           2.3167   -0.8373    0.0007 H       1  LIG1        0.0845
      8 O           1.4918    2.0165   -0.0003 O.3     1  LIG1       -0.4924
      9 C           2.8590    1.5971   -0.0003 C.3     1  LIG1        0.0789
     10 H           3.4958    2.4569   -0.0003 H       1  LIG1        0.0660
     11 H           3.0520    1.0102    0.8734 H       1  LIG1        0.0660
     12 H           3.0520    1.0102   -0.8739 H       1  LIG1        0.0660
     13 C          -1.4853    2.0212    0.0010 C.1     1  LIG1       -0.0639
     14 C          -2.1976    2.9884    0.0016 C.1     1  LIG1       -0.1137
     15 H          -2.8321    3.8500    0.0022 H       1  LIG1        0.1232
     16 C          -3.3792   -0.1298    0.6119 C.ar    1  LIG1        0.0347
     17 C          -4.6563   -0.7228    0.5866 C.ar    1  LIG1       -0.0262
     18 C          -2.3194   -0.8299   -0.0001 C.ar    1  LIG1        0.0237
     19 C          -4.8712   -1.9578   -0.0211 C.ar    1  LIG1        0.0604
     20 H          -5.4882   -0.1998    1.0531 H       1  LIG1        0.0644
     21 C          -2.5333   -2.0628   -0.6069 C.ar    1  LIG1       -0.0086
     22 C          -3.8095   -2.6352   -0.6220 C.ar    1  LIG1        0.1282
     23 H          -1.6998   -2.5830   -1.0720 H       1  LIG1        0.0661
     24 N          -3.2410    1.0245    1.1937 N.pl3   1  LIG1       -0.3574
     25 H          -2.3698    1.4328    0.9214 H       1  LIG1        0.1423
     26 H          -3.9912    1.6270    0.9213 H       1  LIG1        0.1423
     27 O          -4.0034   -3.7881   -1.1906 O.3     1  LIG1       -0.5060
     28 H          -3.1588   -4.2224   -1.3307 H       1  LIG1        0.2922
     29 C          -6.0634   -2.4760   -0.0261 C.ar    1  LIG1        0.1394
     30 C          -7.1164   -2.5289    0.8635 C.ar    1  LIG1       -0.0150
     31 C          -8.1708   -3.2793    0.2140 C.ar    1  LIG1       -0.0122
     32 C          -7.6921   -3.6353   -1.0301 C.ar    1  LIG1        0.1707
     33 O          -6.3947   -3.1513   -1.2016 O.2     1  LIG1       -0.4516
     34 H          -7.1769   -2.0153    2.0562 H       1  LIG1        0.0656
     35 H          -9.3342   -3.5506    0.7269 H       1  LIG1        0.0657
     36 C          -8.1580   -4.2974   -2.0472 C.ar    1  LIG1        0.1733
     37 C          -9.4130   -4.5808   -2.5446 C.ar    1  LIG1        0.0291
     38 C          -9.2164   -5.3839   -3.7335 C.ar    1  LIG1        0.1583
     39 C          -7.8536   -5.5379   -3.8837 C.ar    1  LIG1        0.1342
     40 O          -7.1796   -4.8769   -2.8562 O.2     1  LIG1       -0.4561
     41 H          -7.0777   -6.1388   -4.7364 H       1  LIG1        0.1068
     42 H         -10.5623   -4.2124   -2.0614 H       1  LIG1        0.0693
     43 O         -10.1596   -5.8554   -4.4938 O.3     1  LIG1       -0.4919
     44 C         -11.1086   -4.8228   -4.7730 C.3     1  LIG1        0.0789
     45 H         -11.8846   -5.2113   -5.3990 H       1  LIG1        0.0660
     46 H         -11.5329   -4.4708   -3.8559 H       1  LIG1        0.0660
     47 H         -10.6186   -4.0137   -5.2730 H       1  LIG1        0.0660
@<TRIPOS>BOND
     1    45    44    1
     2    47    44    1
     3    44    43    1
     4    44    46    1
     5    41    39    1
     6    43    38    1
     7    39    38   ar
     8    39    40   ar
     9    38    37   ar
    10    40    36   ar
    11    37    42    1
    12    37    36   ar
    13    36    32    1
    14    28    27    1
    15    33    32   ar
    16    33    29   ar
    17    27    22    1
    18    23    21    1
    19    32    31   ar
    20    12     9    1
    21    22    21   ar
    22    22    19   ar
    23    21    18   ar
    24    29    19    1
    25    29    30   ar
    26    19    17   ar
    27     2     8    1
    28     2     1   ar
    29     2     3   ar
    30    10     9    1
    31     9     8    1
    32     9    11    1
    33     6     5    1
    34     4    18    1
    35     4     5   ar
    36     4     3   ar
    37    18    16   ar
    38     5     1   ar
    39     1     7    1
    40     3    13    1
    41    13    14    3
    42    14    15    1
    43    31    35    1
    44    31    30   ar
    45    17    16   ar
    46    17    20    1
    47    16    24    1
    48    30    34    1
    49    26    24    1
    50    25    24    1
