@<TRIPOS>MOLECULE
mol_data/noopt/geoms/mol2/13le13le13le-13le.out
 58 59 0 0 0
SMALL
GASTEIGER

@<TRIPOS>ATOM
      1 C           1.1215   -0.3259    0.0002 C.ar    1  LIG1        0.0450
      2 C           0.7176    0.9721   -0.0005 C.ar    1  LIG1        0.1458
      3 C          -0.7144    0.9744    0.0003 C.ar    1  LIG1        0.0562
      4 C          -1.1226   -0.3223   -0.0003 C.ar    1  LIG1        0.0783
      5 N          -0.0018   -1.1217    0.0001 N.ar    1  LIG1       -0.3559
      6 H          -0.0034   -2.1157   -0.0003 H       1  LIG1        0.1655
      7 H           2.3167   -0.8373    0.0007 H       1  LIG1        0.0844
      8 O           1.4918    2.0165   -0.0003 O.3     1  LIG1       -0.4930
      9 C           2.8590    1.5971   -0.0003 C.3     1  LIG1        0.0789
     10 H           3.4958    2.4569   -0.0003 H       1  LIG1        0.0660
     11 H           3.0520    1.0102    0.8734 H       1  LIG1        0.0660
     12 H           3.0520    1.0102   -0.8739 H       1  LIG1        0.0660
     13 C          -1.4853    2.0212    0.0010 C.3     1  LIG1       -0.0163
     14 C          -2.1976    2.9884    0.0016 C.3     1  LIG1       -0.0273
     15 H          -2.8321    3.8500    0.0022 H       1  LIG1        0.0312
     16 C          -2.3194   -0.8299   -0.0001 C.ar    1  LIG1        0.1126
     17 C          -3.5353   -0.2219   -0.0003 C.ar    1  LIG1        0.2214
     18 C          -4.5290   -1.2530    0.0012 C.ar    1  LIG1        0.0988
     19 C          -3.8767   -2.4457    0.0005 C.ar    1  LIG1        0.0885
     20 N          -2.5238   -2.1913    0.0002 N.ar    1  LIG1       -0.3476
     21 H          -1.8081   -2.8811   -0.0004 H       1  LIG1        0.1661
     22 O          -3.7520    1.0599   -0.0003 O.3     1  LIG1       -0.2843
     23 C          -2.5024    1.7552   -0.0003 C.3     1  LIG1       -0.0582
     24 H          -2.6813    2.8102   -0.0005 H       1  LIG1        0.0236
     25 H          -1.9455    1.4880    0.8734 H       1  LIG1        0.0236
     26 H          -1.9455    1.4878   -0.8739 H       1  LIG1        0.0236
     27 C          -5.8179   -1.0837    0.0025 C.1     1  LIG1       -0.0636
     28 C          -7.0089   -0.9273    0.0037 C.1     1  LIG1       -0.1137
     29 H          -8.0698   -0.7879    0.0048 H       1  LIG1        0.1232
     30 C          -4.3398   -3.6604    0.0012 C.ar    1  LIG1        0.1319
     31 C          -3.6874   -4.8530    0.0012 C.ar    1  LIG1        0.1648
     32 C          -4.6811   -5.8841    0.0032 C.ar    1  LIG1        0.0958
     33 C          -5.8970   -5.2763    0.0027 C.ar    1  LIG1        0.1107
     34 N          -5.6927   -3.9149    0.0019 N.ar    1  LIG1       -0.2385
     35 H          -6.4084   -3.2251    0.0013 H       2  LIG2        0.0194
     36 O          -2.3984   -5.0223    0.0009 O.3     1  LIG1       -0.4916
     37 C          -2.1007   -6.4210    0.0008 C.3     1  LIG1        0.0789
     38 H          -1.0397   -6.5599    0.0004 H       1  LIG1        0.0660
     39 H          -2.5195   -6.8749    0.8746 H       1  LIG1        0.0660
     40 H          -2.5201   -6.8748   -0.8727 H       1  LIG1        0.0660
     41 C          -4.4643   -7.1660    0.0049 C.1     1  LIG1       -0.0637
     42 C          -4.2641   -8.3503    0.0064 C.1     1  LIG1       -0.1137
     43 H          -4.0857   -9.4054    0.0077 H       1  LIG1        0.1232
     44 C          -7.0939   -5.7839    0.0038 C.ar    1  LIG1        0.1148
     45 C          -8.3097   -5.1759    0.0043 C.ar    1  LIG1        0.2208
     46 C          -9.3034   -6.2070    0.0067 C.ar    1  LIG1        0.0893
     47 C          -8.6511   -7.3997    0.0060 C.ar    1  LIG1        0.0215
     48 N          -7.2982   -7.1453    0.0047 N.ar    1  LIG1       -0.3552
     49 H          -6.5825   -7.8351    0.0038 H       1  LIG1        0.1655
     50 H          -9.1142   -8.6144    0.0073 H       1  LIG1        0.0820
     51 O          -8.5264   -3.8941    0.0041 O.3     1  LIG1       -0.2843
     52 C          -7.2769   -3.1988    0.0039 C.3     2  LIG2       -0.0776
     53 H          -7.4557   -2.1438    0.0036 H       2  LIG2        0.0194
     54 H          -6.7200   -3.4658    0.8777 H       2  LIG2        0.0194
     55 H          -6.7199   -3.4663   -0.8696 H       2  LIG2        0.0194
     56 C         -10.5924   -6.0377    0.0089 C.1     1  LIG1       -0.0643
     57 C         -11.7833   -5.8813    0.0108 C.1     1  LIG1       -0.1137
     58 H         -12.8442   -5.7420    0.0126 H       1  LIG1        0.1232
@<TRIPOS>BOND
     1    26    23    1
     2    12     9    1
     3    40    37    1
     4    55    52    1
     5     2     8    1
     6     2     1   ar
     7     2     3   ar
     8    24    23    1
     9    21    20    1
    10    23    13    1
    11    23    25    1
    12    17    22    1
    13    17    16   ar
    14    17    18   ar
    15     8     9    1
    16     9    10    1
    17     9    11    1
    18     6     5    1
    19     4    16    1
    20     4     5   ar
    21     4     3   ar
    22    16    20   ar
    23     5     1   ar
    24    20    19   ar
    25     1     7    1
    26    38    37    1
    27    19    18   ar
    28    19    30    1
    29    37    36    1
    30    37    39    1
    31    36    31    1
    32    13    14    1
    33    31    30   ar
    34    31    32   ar
    35    18    27    1
    36    30    34   ar
    37    35    52    1
    38    14    15    1
    39    34    33   ar
    40    27    28    3
    41    33    32   ar
    42    33    44    1
    43    32    41    1
    44    53    52    1
    45    28    29    1
    46    49    48    1
    47    44    45   ar
    48    44    48   ar
    49    52    54    1
    50    51    45    1
    51    45    46   ar
    52    48    47   ar
    53    41    42    3
    54    47    46   ar
    55    47    50    1
    56    42    43    1
    57    46    56    1
    58    56    57    3
    59    57    58    1
