@<TRIPOS>MOLECULE
mol_data/noopt/geoms/mol2/13le13le-13le-13le-.out
 58 61 0 0 0
SMALL
GASTEIGER

@<TRIPOS>ATOM
      1 C           1.1215   -0.3259    0.0002 C.ar    1  LIG1        0.0457
      2 C           0.7176    0.9721   -0.0005 C.ar    1  LIG1        0.1533
      3 C          -0.7144    0.9744    0.0003 C.ar    1  LIG1        0.0930
      4 C          -1.1226   -0.3223   -0.0003 C.ar    1  LIG1        0.0858
      5 N          -0.0018   -1.1217    0.0001 N.ar    1  LIG1       -0.3554
      6 H          -0.0034   -2.1157   -0.0003 H       1  LIG1        0.1655
      7 H           2.3167   -0.8373    0.0007 H       1  LIG1        0.0845
      8 O           1.4918    2.0165   -0.0003 O.3     1  LIG1       -0.4924
      9 C           2.8590    1.5971   -0.0003 C.3     1  LIG1        0.0789
     10 H           3.4958    2.4569   -0.0003 H       1  LIG1        0.0660
     11 H           3.0520    1.0102    0.8734 H       1  LIG1        0.0660
     12 H           3.0520    1.0102   -0.8739 H       1  LIG1        0.0660
     13 C          -1.4853    2.0212    0.0010 C.1     1  LIG1       -0.0638
     14 C          -2.1976    2.9884    0.0016 C.1     1  LIG1       -0.1137
     15 H          -2.8321    3.8500    0.0022 H       1  LIG1        0.1232
     16 C          -2.3194   -0.8299   -0.0001 C.ar    1  LIG1        0.1081
     17 C          -2.7274   -2.1266   -0.0005 C.ar    1  LIG1        0.1627
     18 C          -4.1594   -2.1244    0.0011 C.ar    1  LIG1        0.0937
     19 C          -4.5635   -0.8264    0.0006 C.ar    1  LIG1        0.0862
     20 N          -3.4402   -0.0305    0.0003 N.ar    1  LIG1       -0.3478
     21 H          -3.4386    0.9635   -0.0001 H       1  LIG1        0.1661
     22 O          -1.9565   -3.1734   -0.0006 O.3     1  LIG1       -0.4917
     23 C          -2.7589   -4.3571   -0.0007 C.3     1  LIG1        0.0789
     24 H          -2.1240   -5.2184   -0.0010 H       1  LIG1        0.0660
     25 H          -3.3764   -4.3695    0.8731 H       1  LIG1        0.0660
     26 H          -3.3767   -4.3691   -0.8742 H       1  LIG1        0.0660
     27 C          -4.9336   -3.1687    0.0023 C.1     1  LIG1       -0.0638
     28 C          -5.6490   -4.1337    0.0035 C.1     1  LIG1       -0.1137
     29 H          -6.2862   -4.9932    0.0045 H       1  LIG1        0.1232
     30 C          -5.7587   -0.3150    0.0014 C.ar    1  LIG1        0.1082
     31 C          -6.9765   -0.9191    0.0015 C.ar    1  LIG1        0.1627
     32 C          -7.9670    0.1151    0.0037 C.ar    1  LIG1        0.0937
     33 C          -7.3109    1.3057    0.0031 C.ar    1  LIG1        0.0862
     34 N          -5.9587    1.0470    0.0022 N.ar    1  LIG1       -0.3478
     35 H          -5.2408    1.7345    0.0016 H       1  LIG1        0.1661
     36 O          -7.1973   -2.2003    0.0012 O.3     1  LIG1       -0.4917
     37 C          -8.6068   -2.4417    0.0010 C.3     1  LIG1        0.0789
     38 H          -8.7881   -3.4962    0.0007 H       1  LIG1        0.0660
     39 H          -9.0435   -2.0050    0.8749 H       1  LIG1        0.0660
     40 H          -9.0434   -2.0044   -0.8724 H       1  LIG1        0.0660
     41 C          -9.2564   -0.0501    0.0054 C.1     1  LIG1       -0.0638
     42 C         -10.4479   -0.2027    0.0070 C.1     1  LIG1       -0.1137
     43 H         -11.5092   -0.3387    0.0085 H       1  LIG1        0.1232
     44 C          -7.7701    2.5219    0.0044 C.ar    1  LIG1        0.1077
     45 C          -9.0494    2.9816    0.0047 C.ar    1  LIG1        0.1620
     46 C          -8.9898    4.4124    0.0074 C.ar    1  LIG1        0.0842
     47 C          -7.6767    4.7641    0.0068 C.ar    1  LIG1        0.0213
     48 N          -6.9265    3.6098    0.0054 N.ar    1  LIG1       -0.3554
     49 H          -5.9333    3.5684    0.0046 H       1  LIG1        0.1655
     50 H          -7.1178    5.9378    0.0083 H       1  LIG1        0.0820
     51 O         -10.1263    2.2532    0.0043 O.3     1  LIG1       -0.4917
     52 C         -11.2768    3.1024    0.0041 C.3     1  LIG1        0.0789
     53 H         -12.1629    2.5026    0.0037 H       1  LIG1        0.0660
     54 H         -11.2646    3.7199    0.8780 H       1  LIG1        0.0660
     55 H         -11.2640    3.7203   -0.8693 H       1  LIG1        0.0660
     56 C         -10.0023    5.2278    0.0095 C.1     1  LIG1       -0.0645
     57 C         -10.9378    5.9812    0.0114 C.1     1  LIG1       -0.1137
     58 H         -11.7711    6.6524    0.0131 H       1  LIG1        0.1232
@<TRIPOS>BOND
     1    26    23    1
     2    12     9    1
     3    40    37    1
     4    55    52    1
     5    24    23    1
     6    23    22    1
     7    23    25    1
     8    22    17    1
     9     2     8    1
    10     2     1   ar
    11     2     3   ar
    12    17    16   ar
    13    17    18   ar
    14     8     9    1
    15     9    10    1
    16     9    11    1
    17     6     5    1
    18     4    16    1
    19     4     5   ar
    20     4     3   ar
    21    21    20    1
    22    16    20   ar
    23     5     1   ar
    24     1     7    1
    25     3    13    1
    26    20    19   ar
    27    19    18   ar
    28    19    30    1
    29    38    37    1
    30    13    14    3
    31    37    36    1
    32    37    39    1
    33    18    27    1
    34    36    31    1
    35    30    31   ar
    36    30    34   ar
    37    31    32   ar
    38    35    34    1
    39    14    15    1
    40    34    33   ar
    41    27    28    3
    42    33    32   ar
    43    33    44    1
    44    28    29    1
    45    53    52    1
    46    32    41    1
    47    52    51    1
    48    52    54    1
    49    51    45    1
    50    44    45   ar
    51    44    48   ar
    52    49    48    1
    53    45    46   ar
    54    48    47   ar
    55    41    42    3
    56    47    46   ar
    57    47    50    1
    58    42    43    1
    59    46    56    1
    60    56    57    3
    61    57    58    1
