@<TRIPOS>MOLECULE
mol_data/noopt/geoms/mol2/13le6la(150)6hf(330)4ad(150).out
 52 54 0 0 0
SMALL
GASTEIGER

@<TRIPOS>ATOM
      1 C           1.1215   -0.3259    0.0002 C.2     1  LIG1        0.0286
      2 C           0.7176    0.9721   -0.0005 C.2     1  LIG1        0.1169
      3 C          -0.7144    0.9744    0.0003 C.3     1  LIG1        0.0576
      4 C          -1.1226   -0.3223   -0.0003 C.3     1  LIG1        0.0986
      5 N          -0.0018   -1.1217    0.0001 N.pl3   1  LIG1       -0.3347
      6 H          -0.0034   -2.1157   -0.0003 H       1  LIG1        0.1466
      7 H           2.3167   -0.8373    0.0007 H       1  LIG1        0.0812
      8 O           1.4918    2.0165   -0.0003 O.2     1  LIG1       -0.4978
      9 C           2.8590    1.5971   -0.0003 C.3     1  LIG1        0.0784
     10 H           3.4958    2.4569   -0.0003 H       1  LIG1        0.0660
     11 H           3.0520    1.0102    0.8734 H       1  LIG1        0.0660
     12 H           3.0520    1.0102   -0.8739 H       1  LIG1        0.0660
     13 C          -1.4853    2.0212    0.0010 C.1     1  LIG1       -0.0185
     14 C          -2.1976    2.9884    0.0016 C.1     1  LIG1       -0.1053
     15 H          -2.8321    3.8500    0.0022 H       1  LIG1        0.1238
     16 C          -3.3847   -0.1396   -0.6067 C.ar    1  LIG1        0.2208
     17 C          -2.3194   -0.8299   -0.0001 C.ar    1  LIG1        0.0404
     18 C          -2.5791   -2.0648    0.5971 C.ar    1  LIG1       -0.0493
     19 C          -3.8824   -2.5641    0.5688 C.ar    1  LIG1       -0.0350
     20 C          -4.8809   -1.7994   -0.0620 C.ar    1  LIG1        0.0782
     21 N          -4.6479   -0.6064   -0.6432 N.ar    1  LIG1       -0.2125
     22 H          -1.7723   -2.6327    1.0816 H       1  LIG1        0.0623
     23 O          -3.1926    1.0134   -1.1758 O.3     1  LIG1       -0.4727
     24 C          -1.7925    1.2151   -1.3848 C.3     1  LIG1        0.1252
     25 H          -1.6348    2.1641   -1.8533 H       1  LIG1        0.0731
     26 H          -1.2845    1.1935   -0.4432 H       1  LIG1        0.0412
     27 H          -1.4102    0.4388   -2.0141 H       1  LIG1        0.0731
     28 H          -4.1755   -3.7088    1.1108 H       1  LIG1        0.0639
     29 C          -6.4621   -3.4553    0.4633 C.ar    1  LIG1        0.1263
     30 C          -6.1092   -2.2220   -0.1143 C.ar    1  LIG1        0.0435
     31 C          -7.1049   -1.4695   -0.7399 C.ar    1  LIG1       -0.0056
     32 C          -8.4078   -1.9698   -0.7675 C.ar    1  LIG1        0.1435
     33 C          -8.6623   -3.2140   -0.1621 C.ar    1  LIG1        0.1144
     34 N          -7.7139   -3.9530    0.4459 N.ar    1  LIG1       -0.2281
     35 H          -6.8667   -0.5015   -1.2032 H       1  LIG1        0.0662
     36 N          -5.5704   -4.1917    1.0570 N.pl3   1  LIG1       -0.3426
     37 H          -5.6956   -5.1472    0.7898 H       1  LIG1        0.1437
     38 H          -4.6558   -3.8881    0.7898 H       1  LIG1        0.1437
     39 O          -9.3701   -1.3073   -1.3378 O.3     1  LIG1       -0.5046
     40 H         -10.1204   -1.8895   -1.4784 H       1  LIG1        0.2922
     41 C         -10.0922   -4.9707    0.4489 C.ar    1  LIG1       -0.0524
     42 C         -11.4056   -5.4781    0.4212 C.ar    1  LIG1       -0.0599
     43 C          -9.8591   -3.7216   -0.1618 C.ar    1  LIG1        0.0052
     44 C         -12.4428   -4.7742   -0.1867 C.ar    1  LIG1       -0.0443
     45 H         -11.6075   -6.4404    0.8863 H       1  LIG1        0.0618
     46 C         -10.8941   -3.0185   -0.7688 C.ar    1  LIG1       -0.0350
     47 C         -12.1923   -3.5390   -0.7856 C.ar    1  LIG1        0.0524
     48 H         -10.6890   -2.0572   -1.2330 H       1  LIG1        0.0637
     49 H         -13.6436   -5.2723   -0.1938 H       1  LIG1        0.0630
     50 H          -9.1664   -5.6734    1.0313 H       1  LIG1        0.0624
     51 N         -14.0057   -2.2938   -1.8565 N.1     1  LIG1       -0.1909
     52 C         -13.1558   -2.8774   -1.3546 C.1     1  LIG1        0.0992
@<TRIPOS>BOND
     1    27    24    1
     2    51    52    3
     3    25    24    1
     4    40    39    1
     5    24    23    1
     6    52    47    1
     7    39    32    1
     8    48    46    1
     9    35    31    1
    10    23    16    1
    11    12     9    1
    12    47    46   ar
    13    47    44   ar
    14    46    43   ar
    15    32    31   ar
    16    32    33   ar
    17    31    30   ar
    18    21    16   ar
    19    21    20   ar
    20    16    17   ar
    21    26     3    1
    22    49    44    1
    23    44    42   ar
    24    33    43    1
    25    33    34   ar
    26    43    41   ar
    27    30    20    1
    28    30    29   ar
    29    20    19   ar
    30     2     8    1
    31     2     1    2
    32     2     3    1
    33     6     5    1
    34     4    17    1
    35     4     5    1
    36     4     3    1
    37    10     9    1
    38     9     8    1
    39     9    11    1
    40    17    18   ar
    41     5     1    1
    42     1     7    1
    43    13    14    3
    44    14    15    1
    45    42    41   ar
    46    42    45    1
    47    34    29   ar
    48    41    50    1
    49    29    36    1
    50    19    18   ar
    51    19    28    1
    52    18    22    1
    53    38    36    1
    54    37    36    1
