@<TRIPOS>MOLECULE
mol_data/noopt/geoms/mol2/13le13le-13le13le-.out
 58 60 0 0 0
SMALL
GASTEIGER

@<TRIPOS>ATOM
      1 C           1.1215   -0.3259    0.0002 C.ar    1  LIG1        0.0457
      2 C           0.7176    0.9721   -0.0005 C.ar    1  LIG1        0.1533
      3 C          -0.7144    0.9744    0.0003 C.ar    1  LIG1        0.0931
      4 C          -1.1226   -0.3223   -0.0003 C.ar    1  LIG1        0.0878
      5 N          -0.0018   -1.1217    0.0001 N.ar    1  LIG1       -0.3553
      6 H          -0.0034   -2.1157   -0.0003 H       1  LIG1        0.1655
      7 H           2.3167   -0.8373    0.0007 H       1  LIG1        0.0845
      8 O           1.4918    2.0165   -0.0003 O.3     1  LIG1       -0.4924
      9 C           2.8590    1.5971   -0.0003 C.3     1  LIG1        0.0789
     10 H           3.4958    2.4569   -0.0003 H       1  LIG1        0.0660
     11 H           3.0520    1.0102    0.8734 H       1  LIG1        0.0660
     12 H           3.0520    1.0102   -0.8739 H       1  LIG1        0.0660
     13 C          -1.4853    2.0212    0.0010 C.1     1  LIG1       -0.0638
     14 C          -2.1976    2.9884    0.0016 C.1     1  LIG1       -0.1137
     15 H          -2.8321    3.8500    0.0022 H       1  LIG1        0.1232
     16 C          -2.3194   -0.8299   -0.0001 C.ar    1  LIG1        0.1319
     17 C          -2.7274   -2.1266   -0.0005 C.ar    1  LIG1        0.1648
     18 C          -4.1594   -2.1244    0.0011 C.ar    1  LIG1        0.0958
     19 C          -4.5635   -0.8264    0.0006 C.ar    1  LIG1        0.1107
     20 N          -3.4402   -0.0305    0.0003 N.ar    1  LIG1       -0.2385
     21 H          -3.4386    0.9635   -0.0001 H       1  LIG1        0.0194
     22 O          -1.9565   -3.1734   -0.0006 O.3     1  LIG1       -0.4916
     23 C          -2.7589   -4.3571   -0.0007 C.3     1  LIG1        0.0789
     24 H          -2.1240   -5.2184   -0.0010 H       1  LIG1        0.0660
     25 H          -3.3764   -4.3695    0.8731 H       1  LIG1        0.0660
     26 H          -3.3767   -4.3691   -0.8742 H       1  LIG1        0.0660
     27 C          -4.9336   -3.1687    0.0023 C.1     1  LIG1       -0.0637
     28 C          -5.6490   -4.1337    0.0035 C.1     1  LIG1       -0.1137
     29 H          -6.2862   -4.9932    0.0045 H       1  LIG1        0.1232
     30 C          -5.7587   -0.3150    0.0014 C.ar    1  LIG1        0.1153
     31 C          -6.1626    0.9830    0.0016 C.ar    1  LIG1        0.2215
     32 C          -7.5946    0.9853    0.0038 C.ar    1  LIG1        0.0987
     33 C          -8.0028   -0.3114    0.0030 C.ar    1  LIG1        0.0864
     34 N          -6.8820   -1.1108    0.0021 N.ar    1  LIG1       -0.3476
     35 H          -6.8836   -2.1048    0.0013 H       1  LIG1        0.1661
     36 O          -5.3884    2.0274    0.0015 O.3     1  LIG1       -0.2843
     37 C          -4.0213    1.6080    0.0014 C.3     2  LIG2       -0.0776
     38 H          -3.3844    2.4678    0.0012 H       1  LIG1        0.0194
     39 H          -3.8281    1.0213    0.8752 H       1  LIG1        0.0194
     40 H          -3.8283    1.0210   -0.8721 H       1  LIG1        0.0194
     41 C          -8.3655    2.0321    0.0056 C.1     1  LIG1       -0.0636
     42 C          -9.0778    2.9993    0.0073 C.1     1  LIG1       -0.1137
     43 H          -9.7123    3.8609    0.0088 H       1  LIG1        0.1232
     44 C          -9.1996   -0.8190    0.0041 C.ar    1  LIG1        0.1077
     45 C          -9.6076   -2.1157    0.0044 C.ar    1  LIG1        0.1620
     46 C         -11.0396   -2.1135    0.0069 C.ar    1  LIG1        0.0842
     47 C         -11.4437   -0.8155    0.0063 C.ar    1  LIG1        0.0213
     48 N         -10.3204   -0.0196    0.0051 N.ar    1  LIG1       -0.3554
     49 H         -10.3188    0.9744    0.0043 H       1  LIG1        0.1655
     50 H         -12.6389   -0.3041    0.0077 H       1  LIG1        0.0820
     51 O          -8.8367   -3.1625    0.0040 O.3     1  LIG1       -0.4917
     52 C          -9.6391   -4.3462    0.0038 C.3     1  LIG1        0.0789
     53 H          -9.0042   -5.2075    0.0034 H       1  LIG1        0.0660
     54 H         -10.2566   -4.3587    0.8777 H       1  LIG1        0.0660
     55 H         -10.2570   -4.3581   -0.8696 H       1  LIG1        0.0660
     56 C         -11.8138   -3.1578    0.0089 C.1     1  LIG1       -0.0645
     57 C         -12.5292   -4.1227    0.0107 C.1     1  LIG1       -0.1137
     58 H         -13.1664   -4.9823    0.0124 H       1  LIG1        0.1232
@<TRIPOS>BOND
     1    26    23    1
     2    12     9    1
     3    40    37    1
     4    55    52    1
     5    24    23    1
     6    23    22    1
     7    23    25    1
     8    22    17    1
     9     2     8    1
    10     2     1   ar
    11     2     3   ar
    12    17    16   ar
    13    17    18   ar
    14     8     9    1
    15     9    10    1
    16     9    11    1
    17     6     5    1
    18     4    16    1
    19     4     5   ar
    20     4     3   ar
    21    21    37    1
    22    16    20   ar
    23     5     1   ar
    24     1     7    1
    25     3    13    1
    26    20    19   ar
    27    19    18   ar
    28    19    30    1
    29    13    14    3
    30    18    27    1
    31    38    37    1
    32    35    34    1
    33    37    39    1
    34    30    31   ar
    35    30    34   ar
    36    36    31    1
    37    31    32   ar
    38    14    15    1
    39    34    33   ar
    40    27    28    3
    41    33    32   ar
    42    33    44    1
    43    53    52    1
    44    28    29    1
    45    32    41    1
    46    52    51    1
    47    52    54    1
    48    51    45    1
    49    44    45   ar
    50    44    48   ar
    51    49    48    1
    52    45    46   ar
    53    48    47   ar
    54    41    42    3
    55    47    46   ar
    56    47    50    1
    57    46    56    1
    58    42    43    1
    59    56    57    3
    60    57    58    1
