@<TRIPOS>MOLECULE
mol_data/noopt/geoms/mol2/13le4if(310)6ld4eh(70).out
 58 61 0 0 0
SMALL
GASTEIGER

@<TRIPOS>ATOM
      1 C           1.1215   -0.3259    0.0002 C.ar    1  LIG1        0.0456
      2 C           0.7176    0.9721   -0.0005 C.ar    1  LIG1        0.1532
      3 C          -0.7144    0.9744    0.0003 C.ar    1  LIG1        0.0915
      4 C          -1.1226   -0.3223   -0.0003 C.ar    1  LIG1        0.0661
      5 N          -0.0018   -1.1217    0.0001 N.ar    1  LIG1       -0.3566
      6 H          -0.0034   -2.1157   -0.0003 H       1  LIG1        0.1655
      7 H           2.3167   -0.8373    0.0007 H       1  LIG1        0.0845
      8 O           1.4918    2.0165   -0.0003 O.3     1  LIG1       -0.4924
      9 C           2.8590    1.5971   -0.0003 C.3     1  LIG1        0.0789
     10 H           3.4958    2.4569   -0.0003 H       1  LIG1        0.0660
     11 H           3.0520    1.0102    0.8734 H       1  LIG1        0.0660
     12 H           3.0520    1.0102   -0.8739 H       1  LIG1        0.0660
     13 C          -1.4853    2.0212    0.0010 C.1     1  LIG1       -0.0639
     14 C          -2.1976    2.9884    0.0016 C.1     1  LIG1       -0.1137
     15 H          -2.8321    3.8500    0.0022 H       1  LIG1        0.1232
     16 C          -3.2732   -0.3803   -0.9359 C.ar    1  LIG1       -0.0405
     17 C          -4.5558   -0.9604   -0.8937 C.ar    1  LIG1       -0.0468
     18 C          -2.3194   -0.8299   -0.0001 C.ar    1  LIG1        0.0060
     19 C          -4.8764   -1.9453    0.0379 C.ar    1  LIG1        0.0290
     20 H          -5.3070   -0.6280   -1.6066 H       1  LIG1        0.0628
     21 C          -2.6389   -1.8131    0.9301 C.ar    1  LIG1       -0.0102
     22 C          -3.9185   -2.3775    0.9559 C.ar    1  LIG1        0.1253
     23 H          -1.8860   -2.1428    1.6414 H       1  LIG1        0.0661
     24 C          -3.0335    0.5344   -1.8285 C.3     1  LIG1       -0.0391
     25 H          -3.7251    1.3417   -1.7065 H       1  LIG1        0.0278
     26 H          -3.1434    0.1155   -2.8070 H       1  LIG1        0.0278
     27 H          -2.0349    0.8987   -1.7065 H       1  LIG1        0.0278
     28 O          -4.2116   -3.2961    1.8279 O.3     1  LIG1       -0.5061
     29 H          -3.4216   -3.7976    2.0428 H       1  LIG1        0.2922
     30 C          -6.2434   -3.8556    0.0546 C.ar    1  LIG1        0.2231
     31 C          -6.0704   -2.4594    0.0486 C.ar    1  LIG1        0.0484
     32 C          -7.2057   -1.6469    0.0547 C.ar    1  LIG1       -0.0293
     33 C          -8.4642   -2.2507    0.0663 C.ar    1  LIG1        0.0785
     34 C          -8.5347   -3.6559    0.0714 C.ar    1  LIG1        0.0934
     35 N          -7.4499   -4.4549    0.0658 N.ar    1  LIG1       -0.2111
     36 H          -7.1100   -0.5518    0.0493 H       1  LIG1        0.0639
     37 O          -5.2171   -4.6535    0.0494 O.3     1  LIG1       -0.4792
     38 C          -5.6677   -6.0107    0.0474 C.3     1  LIG1        0.0804
     39 H          -4.8226   -6.6671    0.0430 H       1  LIG1        0.0660
     40 H          -6.2559   -6.1925    0.9226 H       1  LIG1        0.0660
     41 H          -6.2616   -6.1881   -0.8247 H       1  LIG1        0.0660
     42 N         -10.5104   -0.9097    0.0774 N.1     1  LIG1       -0.1908
     43 C          -9.5515   -1.5382    0.0722 C.1     1  LIG1        0.1013
     44 C         -10.4910   -4.2201    1.2370 C.ar    1  LIG1        0.0340
     45 C         -11.7256   -4.8966    1.1989 C.ar    1  LIG1       -0.0440
     46 C          -9.6833   -4.2645    0.0822 C.ar    1  LIG1        0.0188
     47 C         -12.1400   -5.5870    0.0621 C.ar    1  LIG1       -0.0399
     48 H         -12.3642   -4.8752    2.0791 H       1  LIG1        0.0630
     49 C         -10.0966   -4.9536   -1.0529 C.ar    1  LIG1       -0.0307
     50 C         -11.3267   -5.6191   -1.0714 C.ar    1  LIG1        0.0252
     51 H          -9.4559   -4.9732   -1.9308 H       1  LIG1        0.0643
     52 H         -13.2861   -6.2005    0.0616 H       1  LIG1        0.0636
     53 C         -10.1590   -3.5930    2.3263 C.1     1  LIG1       -0.0690
     54 C          -9.8522   -3.0136    3.3328 C.1     1  LIG1       -0.1139
     55 H          -9.5789   -2.4975    4.2294 H       1  LIG1        0.1232
     56 N         -11.7077   -6.2618   -2.1353 N.pl3   1  LIG1       -0.3579
     57 H         -12.3110   -5.6783   -2.6789 H       1  LIG1        0.1423
     58 H         -10.9063   -6.5110   -2.6790 H       1  LIG1        0.1423
@<TRIPOS>BOND
     1    26    24    1
     2    58    56    1
     3    57    56    1
     4    56    50    1
     5    51    49    1
     6    24    27    1
     7    24    25    1
     8    24    16    1
     9    20    17    1
    10    50    49   ar
    11    50    47   ar
    12    49    46   ar
    13    16    17   ar
    14    16    18   ar
    15    17    19   ar
    16    12     9    1
    17    41    38    1
    18     2     8    1
    19     2     1   ar
    20     2     3   ar
    21     6     5    1
    22     4    18    1
    23     4     5   ar
    24     4     3   ar
    25    10     9    1
    26     9     8    1
    27     9    11    1
    28    18    21   ar
    29     5     1   ar
    30     1     7    1
    31     3    13    1
    32    13    14    3
    33    14    15    1
    34    19    31    1
    35    19    22   ar
    36    39    38    1
    37    38    37    1
    38    38    40    1
    39    31    30   ar
    40    31    32   ar
    41    36    32    1
    42    37    30    1
    43    30    35   ar
    44    32    33   ar
    45    52    47    1
    46    47    45   ar
    47    35    34   ar
    48    33    34   ar
    49    33    43    1
    50    34    46    1
    51    43    42    3
    52    46    44   ar
    53    21    22   ar
    54    21    23    1
    55    22    28    1
    56    45    44   ar
    57    45    48    1
    58    44    53    1
    59    28    29    1
    60    53    54    3
    61    54    55    1
