@<TRIPOS>MOLECULE
mol_data/noopt/geoms/mol2/13le13le-13le.out
 44 45 0 0 0
SMALL
GASTEIGER

@<TRIPOS>ATOM
      1 C           1.1215   -0.3259    0.0002 C.ar    1  LIG1        0.0457
      2 C           0.7176    0.9721   -0.0005 C.ar    1  LIG1        0.1533
      3 C          -0.7144    0.9744    0.0003 C.ar    1  LIG1        0.0931
      4 C          -1.1226   -0.3223   -0.0003 C.ar    1  LIG1        0.0878
      5 N          -0.0018   -1.1217    0.0001 N.ar    1  LIG1       -0.3553
      6 H          -0.0034   -2.1157   -0.0003 H       1  LIG1        0.1655
      7 H           2.3167   -0.8373    0.0007 H       1  LIG1        0.0845
      8 O           1.4918    2.0165   -0.0003 O.3     1  LIG1       -0.4924
      9 C           2.8590    1.5971   -0.0003 C.3     1  LIG1        0.0789
     10 H           3.4958    2.4569   -0.0003 H       1  LIG1        0.0660
     11 H           3.0520    1.0102    0.8734 H       1  LIG1        0.0660
     12 H           3.0520    1.0102   -0.8739 H       1  LIG1        0.0660
     13 C          -1.4853    2.0212    0.0010 C.1     1  LIG1       -0.0638
     14 C          -2.1976    2.9884    0.0016 C.1     1  LIG1       -0.1137
     15 H          -2.8321    3.8500    0.0022 H       1  LIG1        0.1232
     16 C          -2.3194   -0.8299   -0.0001 C.ar    1  LIG1        0.1319
     17 C          -2.7274   -2.1266   -0.0005 C.ar    1  LIG1        0.1648
     18 C          -4.1594   -2.1244    0.0011 C.ar    1  LIG1        0.0958
     19 C          -4.5635   -0.8264    0.0006 C.ar    1  LIG1        0.1107
     20 N          -3.4402   -0.0305    0.0003 N.ar    1  LIG1       -0.2385
     21 H          -3.4386    0.9635   -0.0001 H       1  LIG1        0.0194
     22 O          -1.9565   -3.1734   -0.0006 O.3     1  LIG1       -0.4916
     23 C          -2.7589   -4.3571   -0.0007 C.3     1  LIG1        0.0789
     24 H          -2.1240   -5.2184   -0.0010 H       1  LIG1        0.0660
     25 H          -3.3764   -4.3695    0.8731 H       1  LIG1        0.0660
     26 H          -3.3767   -4.3691   -0.8742 H       1  LIG1        0.0660
     27 C          -4.9336   -3.1687    0.0023 C.1     1  LIG1       -0.0637
     28 C          -5.6490   -4.1337    0.0035 C.1     1  LIG1       -0.1137
     29 H          -6.2862   -4.9932    0.0045 H       1  LIG1        0.1232
     30 C          -5.7587   -0.3150    0.0014 C.ar    1  LIG1        0.1148
     31 C          -6.1626    0.9830    0.0016 C.ar    1  LIG1        0.2208
     32 C          -7.5946    0.9853    0.0038 C.ar    1  LIG1        0.0893
     33 C          -8.0028   -0.3114    0.0030 C.ar    1  LIG1        0.0215
     34 N          -6.8820   -1.1108    0.0021 N.ar    1  LIG1       -0.3552
     35 H          -6.8836   -2.1048    0.0013 H       1  LIG1        0.1655
     36 H          -9.1996   -0.8190    0.0041 H       1  LIG1        0.0820
     37 O          -5.3884    2.0274    0.0015 O.3     1  LIG1       -0.2843
     38 C          -4.0213    1.6080    0.0014 C.3     2  LIG2       -0.0776
     39 H          -3.3844    2.4678    0.0012 H       1  LIG1        0.0194
     40 H          -3.8281    1.0213    0.8752 H       1  LIG1        0.0194
     41 H          -3.8283    1.0210   -0.8721 H       1  LIG1        0.0194
     42 C          -8.3655    2.0321    0.0056 C.1     1  LIG1       -0.0643
     43 C          -9.0778    2.9993    0.0073 C.1     1  LIG1       -0.1137
     44 H          -9.7123    3.8609    0.0088 H       1  LIG1        0.1232
@<TRIPOS>BOND
     1    26    23    1
     2    12     9    1
     3    41    38    1
     4    24    23    1
     5    23    22    1
     6    23    25    1
     7    22    17    1
     8     2     8    1
     9     2     1   ar
    10     2     3   ar
    11    17    16   ar
    12    17    18   ar
    13     9    10    1
    14     9     8    1
    15     9    11    1
    16     6     5    1
    17     4    16    1
    18     4     5   ar
    19     4     3   ar
    20    21    38    1
    21    16    20   ar
    22     5     1   ar
    23     1     7    1
    24     3    13    1
    25    20    19   ar
    26    19    18   ar
    27    19    30    1
    28    13    14    3
    29    18    27    1
    30    39    38    1
    31    35    34    1
    32    38    40    1
    33    30    31   ar
    34    30    34   ar
    35    37    31    1
    36    31    32   ar
    37    14    15    1
    38    34    33   ar
    39    27    28    3
    40    33    32   ar
    41    33    36    1
    42    28    29    1
    43    32    42    1
    44    42    43    3
    45    43    44    1
