@<TRIPOS>MOLECULE
mol_data/noopt/geoms/mol2/13lf6lf6ea-13ah-.out
 50 53 0 0 0
SMALL
GASTEIGER

@<TRIPOS>ATOM
      1 C           1.1215   -0.3259    0.0002 C.ar    1  LIG1        0.0481
      2 C           0.7176    0.9721   -0.0005 C.ar    1  LIG1        0.1792
      3 C          -0.7144    0.9744    0.0003 C.ar    1  LIG1        0.1845
      4 C          -1.1226   -0.3223   -0.0003 C.ar    1  LIG1        0.0975
      5 N          -0.0018   -1.1217    0.0001 N.ar    1  LIG1       -0.3545
      6 H          -0.0034   -2.1157   -0.0003 H       1  LIG1        0.1656
      7 H           2.3167   -0.8373    0.0007 H       1  LIG1        0.0845
      8 O           1.4918    2.0165   -0.0003 O.3     1  LIG1       -0.4900
      9 C           2.8590    1.5971   -0.0003 C.3     1  LIG1        0.0790
     10 H           3.4958    2.4569   -0.0003 H       1  LIG1        0.0660
     11 H           3.0520    1.0102    0.8734 H       1  LIG1        0.0660
     12 H           3.0520    1.0102   -0.8739 H       1  LIG1        0.0660
     13 O          -1.4853    2.0212    0.0010 O.3     1  LIG1       -0.5019
     14 H          -2.4040    1.7426    0.0012 H       1  LIG1        0.2924
     15 C          -2.5001   -2.2252    0.0002 C.ar    1  LIG1        0.2247
     16 C          -2.3194   -0.8299   -0.0001 C.ar    1  LIG1        0.0670
     17 C          -3.4502   -0.0112    0.0002 C.ar    1  LIG1       -0.0037
     18 C          -4.7120   -0.6082    0.0005 C.ar    1  LIG1        0.1437
     19 C          -4.7903   -2.0130    0.0006 C.ar    1  LIG1        0.1187
     20 N          -3.7098   -2.8179    0.0005 N.ar    1  LIG1       -0.2086
     21 H          -3.3485    1.0833   -0.0010 H       1  LIG1        0.0663
     22 O          -1.4781   -3.0287    0.0000 O.3     1  LIG1       -0.4792
     23 C          -1.9361   -4.3834   -0.0001 C.3     1  LIG1        0.0804
     24 H          -1.0946   -5.0443   -0.0004 H       1  LIG1        0.0660
     25 H          -2.5280   -4.5599    0.8737 H       1  LIG1        0.0660
     26 H          -2.5283   -4.5596   -0.8736 H       1  LIG1        0.0660
     27 O          -5.7955    0.1103    0.0006 O.3     1  LIG1       -0.5046
     28 H          -6.5627   -0.4668    0.0006 H       1  LIG1        0.2922
     29 C          -6.0101   -4.0204   -0.0198 C.ar    1  LIG1        0.1231
     30 C          -5.9423   -2.6153    0.0010 C.ar    1  LIG1        0.0379
     31 C          -7.1353   -1.8905    0.0222 C.ar    1  LIG1       -0.0477
     32 C          -8.3450   -2.5872    0.0217 C.ar    1  LIG1       -0.0336
     33 C          -8.3099   -3.9936   -0.0001 C.ar    1  LIG1        0.0886
     34 N          -7.1682   -4.7087   -0.0206 N.ar    1  LIG1       -0.2363
     35 H          -7.1220   -0.7915    0.0378 H       1  LIG1        0.0626
     36 C          -4.9269   -4.7388   -0.0399 C.1     1  LIG1       -0.0491
     37 C          -3.9259   -5.4027   -0.0585 C.1     1  LIG1       -0.1124
     38 H          -3.0343   -5.9940   -0.0750 H       1  LIG1        0.1232
     39 H          -9.4826   -1.9585    0.0408 H       1  LIG1        0.0640
     40 C          -9.4097   -4.6867   -0.0014 C.ar    1  LIG1        0.0668
     41 C         -10.7074   -4.2819   -0.0026 C.ar    1  LIG1       -0.0142
     42 C         -11.5227   -5.4591   -0.0025 C.ar    1  LIG1        0.0427
     43 C         -10.6873   -6.5316   -0.0030 C.ar    1  LIG1        0.0230
     44 N          -9.3928   -6.0633   -0.0019 N.ar    1  LIG1       -0.3578
     45 H          -8.5756   -6.6292   -0.0021 H       1  LIG1        0.1654
     46 H         -10.9494   -7.8050   -0.0033 H       1  LIG1        0.0826
     47 H         -11.1271   -3.0515   -0.0022 H       1  LIG1        0.0658
     48 N         -12.8221   -5.4990   -0.0024 N.pl3   1  LIG1       -0.3568
     49 H         -13.1803   -4.6931   -0.4738 H       1  LIG1        0.1424
     50 H         -13.1302   -6.3253   -0.4739 H       1  LIG1        0.1424
@<TRIPOS>BOND
     1    12     9    1
     2    26    23    1
     3    50    48    1
     4    49    48    1
     5    38    37    1
     6    37    36    3
     7    36    29    1
     8    34    29   ar
     9    34    33   ar
    10    29    30   ar
    11    46    43    1
    12    43    42   ar
    13    43    44   ar
    14    41    42   ar
    15    41    47    1
    16    41    40   ar
    17    42    48    1
    18    45    44    1
    19    44    40   ar
    20    40    33    1
    21    21    17    1
    22     2     8    1
    23     2     1   ar
    24     2     3   ar
    25    24    23    1
    26     6     5    1
    27    10     9    1
    28     9     8    1
    29     9    11    1
    30     4    16    1
    31     4     5   ar
    32     4     3   ar
    33    33    32   ar
    34    16    15   ar
    35    16    17   ar
    36    23    22    1
    37    23    25    1
    38    22    15    1
    39     5     1   ar
    40    15    20   ar
    41    17    18   ar
    42     1     7    1
    43     3    13    1
    44    20    19   ar
    45    18    19   ar
    46    18    27    1
    47    19    30    1
    48    27    28    1
    49    30    31   ar
    50    13    14    1
    51    32    31   ar
    52    32    39    1
    53    31    35    1
