@<TRIPOS>MOLECULE
mol_data/noopt/geoms/mol2/13lf13fh(330)4id(260)12ea(140).out
 49 52 0 0 0
SMALL
GASTEIGER

@<TRIPOS>ATOM
      1 C           1.1215   -0.3259    0.0002 C.ar    1  LIG1        0.0482
      2 C           0.7176    0.9721   -0.0005 C.ar    1  LIG1        0.1793
      3 C          -0.7144    0.9744    0.0003 C.ar    1  LIG1        0.1859
      4 C          -1.1226   -0.3223   -0.0003 C.ar    1  LIG1        0.1123
      5 N          -0.0018   -1.1217    0.0001 N.ar    1  LIG1       -0.3534
      6 H          -0.0034   -2.1157   -0.0003 H       1  LIG1        0.1656
      7 H           2.3167   -0.8373    0.0007 H       1  LIG1        0.0845
      8 O           1.4918    2.0165   -0.0003 O.3     1  LIG1       -0.4900
      9 C           2.8590    1.5971   -0.0003 C.3     1  LIG1        0.0790
     10 H           3.4958    2.4569   -0.0003 H       1  LIG1        0.0660
     11 H           3.0520    1.0102    0.8734 H       1  LIG1        0.0660
     12 H           3.0520    1.0102   -0.8739 H       1  LIG1        0.0660
     13 O          -1.4853    2.0212    0.0010 O.3     1  LIG1       -0.5019
     14 H          -2.4040    1.7426    0.0012 H       1  LIG1        0.2924
     15 C          -2.3194   -0.8299   -0.0001 C.ar    1  LIG1        0.1109
     16 C          -3.4881   -0.3334   -0.4856 C.ar    1  LIG1        0.1650
     17 C          -4.5076   -1.3035   -0.2209 C.ar    1  LIG1        0.0929
     18 C          -3.9168   -2.3509    0.4131 C.ar    1  LIG1        0.0719
     19 N          -2.5773   -2.0649    0.5507 N.ar    1  LIG1       -0.3485
     20 H          -1.9031   -2.6565    0.9792 H       1  LIG1        0.1661
     21 O          -3.6472    0.8124   -1.0789 O.3     1  LIG1       -0.5030
     22 H          -4.5828    0.9703   -1.2251 H       1  LIG1        0.2923
     23 N          -5.7667   -1.2047   -0.5290 N.pl3   1  LIG1       -0.3535
     24 H          -5.9143   -0.3741   -1.0659 H       1  LIG1        0.1425
     25 H          -6.0421   -2.0020   -1.0660 H       1  LIG1        0.1425
     26 C          -4.6722   -4.5251   -0.0414 C.ar    1  LIG1       -0.0405
     27 C          -5.2223   -5.7099    0.4848 C.ar    1  LIG1       -0.0463
     28 C          -4.4227   -3.4645    0.8534 C.ar    1  LIG1        0.0044
     29 C          -5.5115   -5.8356    1.8417 C.ar    1  LIG1        0.0361
     30 H          -5.4229   -6.5406   -0.1881 H       1  LIG1        0.0628
     31 C          -4.7112   -3.5894    2.2082 C.ar    1  LIG1       -0.0342
     32 C          -5.2571   -4.7747    2.7118 C.ar    1  LIG1        0.0631
     33 H          -4.5099   -2.7573    2.8779 H       1  LIG1        0.0637
     34 C          -4.4235   -4.4676   -1.3164 C.3     1  LIG1       -0.0391
     35 H          -4.0702   -3.4892   -1.5671 H       1  LIG1        0.0278
     36 H          -5.3191   -4.6746   -1.8642 H       1  LIG1        0.0278
     37 H          -3.6767   -5.1917   -1.5671 H       1  LIG1        0.0278
     38 N          -5.7610   -4.9836    5.0968 N.1     1  LIG1       -0.1908
     39 C          -5.5249   -4.8857    3.9791 C.1     1  LIG1        0.0999
     40 C          -6.0188   -6.9439    2.2936 C.ar    1  LIG1        0.1513
     41 C          -5.6109   -7.9257    3.1727 C.ar    1  LIG1        0.0703
     42 C          -6.6773   -8.9039    3.2260 C.ar    1  LIG1       -0.0078
     43 C          -7.6666   -8.4547    2.3756 C.ar    1  LIG1        0.0938
     44 O          -7.2839   -7.2480    1.7889 O.2     1  LIG1       -0.4616
     45 H          -8.8368   -8.8846    2.0071 H       1  LIG1        0.1030
     46 C          -4.4945   -7.9859    3.8360 C.1     1  LIG1       -0.0659
     47 C          -3.4629   -8.0415    4.4489 C.1     1  LIG1       -0.1138
     48 H          -2.5440   -8.0910    4.9949 H       1  LIG1        0.1232
     49 H          -6.6766   -9.9871    3.9448 H       1  LIG1        0.0661
@<TRIPOS>BOND
     1    36    34    1
     2    35    34    1
     3    37    34    1
     4    34    26    1
     5    22    21    1
     6    21    16    1
     7    25    23    1
     8    24    23    1
     9    12     9    1
    10    23    17    1
    11    16    17   ar
    12    16    15   ar
    13    17    18   ar
    14    30    27    1
    15    26    27   ar
    16    26    28   ar
    17     2     8    1
    18     2     1   ar
    19     2     3   ar
    20    10     9    1
    21     9     8    1
    22     9    11    1
    23     6     5    1
    24     4    15    1
    25     4     5   ar
    26     4     3   ar
    27    15    19   ar
    28     5     1   ar
    29     1     7    1
    30     3    13    1
    31    13    14    1
    32    18    19   ar
    33    18    28    1
    34    27    29   ar
    35    19    20    1
    36    28    31   ar
    37    44    40   ar
    38    44    43   ar
    39    29    40    1
    40    29    32   ar
    41    45    43    1
    42    31    32   ar
    43    31    33    1
    44    40    41   ar
    45    43    42   ar
    46    32    39    1
    47    41    42   ar
    48    41    46    1
    49    42    49    1
    50    46    47    3
    51    39    38    3
    52    47    48    1
