@<TRIPOS>MOLECULE
mol_data/noopt/geoms/mol2/13lf6dd-6ah-6il.out
 53 56 0 0 0
SMALL
GASTEIGER

@<TRIPOS>ATOM
      1 C           1.1215   -0.3259    0.0002 C.ar    1  LIG1        0.0481
      2 C           0.7176    0.9721   -0.0005 C.ar    1  LIG1        0.1792
      3 C          -0.7144    0.9744    0.0003 C.ar    1  LIG1        0.1844
      4 C          -1.1226   -0.3223   -0.0003 C.ar    1  LIG1        0.0950
      5 N          -0.0018   -1.1217    0.0001 N.ar    1  LIG1       -0.3546
      6 H          -0.0034   -2.1157   -0.0003 H       1  LIG1        0.1656
      7 H           2.3167   -0.8373    0.0007 H       1  LIG1        0.0845
      8 O           1.4918    2.0165   -0.0003 O.3     1  LIG1       -0.4900
      9 C           2.8590    1.5971   -0.0003 C.3     1  LIG1        0.0790
     10 H           3.4958    2.4569   -0.0003 H       1  LIG1        0.0660
     11 H           3.0520    1.0102    0.8734 H       1  LIG1        0.0660
     12 H           3.0520    1.0102   -0.8739 H       1  LIG1        0.0660
     13 O          -1.4853    2.0212    0.0010 O.3     1  LIG1       -0.5019
     14 H          -2.4040    1.7426    0.0012 H       1  LIG1        0.2924
     15 C          -2.5002   -2.2250   -0.0210 C.ar    1  LIG1        0.1500
     16 C          -2.3194   -0.8299   -0.0001 C.ar    1  LIG1        0.0391
     17 C          -3.4501   -0.0114    0.0210 C.ar    1  LIG1       -0.0303
     18 C          -4.7120   -0.6083    0.0204 C.ar    1  LIG1        0.0784
     19 C          -4.7903   -2.0130   -0.0016 C.ar    1  LIG1        0.0913
     20 N          -3.7099   -2.8177   -0.0220 N.ar    1  LIG1       -0.2343
     21 H          -3.3484    1.0830    0.0367 H       1  LIG1        0.0638
     22 N          -0.5770   -3.7369   -0.0586 N.1     1  LIG1       -0.1893
     23 C          -1.4783   -3.0283   -0.0410 C.1     1  LIG1        0.1198
     24 N          -6.7508    0.7436    0.0561 N.1     1  LIG1       -0.1908
     25 C          -5.7953    0.1100    0.0393 C.1     1  LIG1        0.1013
     26 C          -6.0101   -4.0204   -0.0248 C.ar    1  LIG1        0.0376
     27 C          -5.9423   -2.6153   -0.0030 C.ar    1  LIG1        0.0215
     28 C          -7.1354   -1.8905    0.0172 C.ar    1  LIG1       -0.0283
     29 C          -8.3450   -2.5872    0.0148 C.ar    1  LIG1        0.0516
     30 C          -8.3099   -3.9935   -0.0080 C.ar    1  LIG1        0.0934
     31 N          -7.1682   -4.7086   -0.0275 N.ar    1  LIG1       -0.2524
     32 H          -7.1221   -0.7915    0.0335 H       1  LIG1        0.0644
     33 H          -4.9268   -4.7388   -0.0440 H       1  LIG1        0.0836
     34 N          -9.4827   -1.9584    0.0329 N.pl3   1  LIG1       -0.3563
     35 H          -9.3852   -1.0794   -0.4339 H       1  LIG1        0.1424
     36 H         -10.1751   -2.5086   -0.4339 H       1  LIG1        0.1424
     37 C          -9.3640   -6.0928   -0.0125 C.ar    1  LIG1        0.0477
     38 C          -9.4097   -4.6867   -0.0110 C.ar    1  LIG1        0.0266
     39 C         -10.6573   -4.0602   -0.0126 C.ar    1  LIG1       -0.0075
     40 C         -11.8069   -4.8520   -0.0157 C.ar    1  LIG1        0.1387
     41 C         -11.6586   -6.2511   -0.0172 C.ar    1  LIG1        0.0695
     42 N         -10.4629   -6.8721   -0.0156 N.ar    1  LIG1       -0.2559
     43 H         -10.7326   -2.9635   -0.0125 H       1  LIG1        0.0662
     44 H         -12.6989   -7.0306   -0.0201 H       1  LIG1        0.0867
     45 C          -8.2260   -6.7220   -0.0111 C.3     1  LIG1       -0.0217
     46 H          -7.4917   -6.1297    0.4937 H       1  LIG1        0.0293
     47 H          -7.9129   -6.8950   -1.0196 H       1  LIG1        0.0293
     48 H          -8.3371   -7.6589    0.4936 H       1  LIG1        0.0293
     49 O         -12.9916   -4.3167   -0.0174 O.3     1  LIG1       -0.4936
     50 C         -12.8716   -2.8918   -0.0181 C.3     1  LIG1        0.0789
     51 H         -13.8469   -2.4517   -0.0197 H       1  LIG1        0.0660
     52 H         -12.3402   -2.5782    0.8561 H       1  LIG1        0.0660
     53 H         -12.3379   -2.5792   -0.8912 H       1  LIG1        0.0660
@<TRIPOS>BOND
     1    47    45    1
     2    53    50    1
     3    12     9    1
     4    36    34    1
     5    35    34    1
     6    22    23    3
     7    33    26    1
     8    23    15    1
     9    31    26   ar
    10    31    30   ar
    11    26    27   ar
    12    20    15   ar
    13    20    19   ar
    14    15    16   ar
    15    44    41    1
    16    51    50    1
    17    50    49    1
    18    50    52    1
    19    49    40    1
    20    41    40   ar
    21    41    42   ar
    22    40    39   ar
    23    42    37   ar
    24    39    43    1
    25    39    38   ar
    26    37    45    1
    27    37    38   ar
    28    45    48    1
    29    45    46    1
    30    38    30    1
    31    30    29   ar
    32    27    19    1
    33    27    28   ar
    34    19    18   ar
    35     2     8    1
    36     2     1   ar
    37     2     3   ar
    38     4    16    1
    39     4     5   ar
    40     4     3   ar
    41     6     5    1
    42     8     9    1
    43     9    10    1
    44     9    11    1
    45    16    17   ar
    46     5     1   ar
    47     1     7    1
    48     3    13    1
    49    13    14    1
    50    29    28   ar
    51    29    34    1
    52    28    32    1
    53    18    17   ar
    54    18    25    1
    55    17    21    1
    56    25    24    3
