@<TRIPOS>MOLECULE
mol_data/noopt/geoms/mol2/13lf12ai-13hi-4aa6af-13fe-12lh6ii.out
 97 103 0 0 0
SMALL
GASTEIGER

@<TRIPOS>ATOM
      1 C           1.1215   -0.3259    0.0002 C.ar    1  LIG1        0.0482
      2 C           0.7176    0.9721   -0.0005 C.ar    1  LIG1        0.1793
      3 C          -0.7144    0.9744    0.0003 C.ar    1  LIG1        0.1874
      4 C          -1.1226   -0.3223   -0.0003 C.ar    1  LIG1        0.1278
      5 N          -0.0018   -1.1217    0.0001 N.ar    1  LIG1       -0.3522
      6 H          -0.0034   -2.1157   -0.0003 H       1  LIG1        0.1656
      7 H           2.3167   -0.8373    0.0007 H       1  LIG1        0.0845
      8 O           1.4918    2.0165   -0.0003 O.3     1  LIG1       -0.4900
      9 C           2.8590    1.5971   -0.0003 C.3     1  LIG1        0.0790
     10 H           3.4958    2.4569   -0.0003 H       1  LIG1        0.0660
     11 H           3.0520    1.0102    0.8734 H       1  LIG1        0.0660
     12 H           3.0520    1.0102   -0.8739 H       1  LIG1        0.0660
     13 O          -1.4853    2.0212    0.0010 O.3     1  LIG1       -0.5018
     14 H          -2.4040    1.7426    0.0012 H       1  LIG1        0.2924
     15 C          -2.3194   -0.8299   -0.0001 C.ar    1  LIG1        0.1558
     16 C          -3.6025   -0.3232    0.0001 C.ar    1  LIG1       -0.0107
     17 C          -4.4979   -1.4613    0.0002 C.ar    1  LIG1       -0.0025
     18 C          -3.7022   -2.5884    0.0001 C.ar    1  LIG1        0.1565
     19 O          -2.3550   -2.2250   -0.0002 O.2     1  LIG1       -0.4514
     20 H          -3.9649    0.9252    0.0001 H       1  LIG1        0.0659
     21 C          -5.7969   -1.4035    0.0004 C.3     1  LIG1       -0.0360
     22 H          -6.1920   -2.2604    0.5049 H       1  LIG1        0.0279
     23 H          -6.1534   -1.3877   -1.0084 H       1  LIG1        0.0279
     24 H          -6.1143   -0.5148    0.5048 H       1  LIG1        0.0279
     25 C          -3.9132   -3.8712    0.0002 C.ar    1  LIG1        0.1040
     26 C          -5.0769   -4.5736    0.0165 C.ar    1  LIG1        0.0568
     27 C          -4.7371   -5.9646    0.0089 C.ar    1  LIG1       -0.0038
     28 C          -3.3806   -6.0511   -0.0134 C.ar    1  LIG1        0.0517
     29 N          -2.8722   -4.7718   -0.0184 N.ar    1  LIG1       -0.3501
     30 H          -1.9067   -4.5358   -0.0337 H       1  LIG1        0.1661
     31 N          -6.2758   -4.0713    0.0369 N.pl3   1  LIG1       -0.3560
     32 H          -6.2746   -3.1866   -0.4292 H       1  LIG1        0.1424
     33 H          -6.9055   -4.6927   -0.4293 H       1  LIG1        0.1424
     34 C          -5.5694   -6.9635    0.0207 C.3     1  LIG1       -0.0359
     35 H          -5.1236   -7.7933    0.5284 H       1  LIG1        0.0279
     36 H          -5.8036   -7.2447   -0.9848 H       1  LIG1        0.0279
     37 H          -6.4660   -6.6747    0.5283 H       1  LIG1        0.0279
     38 C          -3.1598   -8.3867   -0.0349 C.ar    1  LIG1       -0.0520
     39 C          -2.2739   -9.4813   -0.0490 C.ar    1  LIG1       -0.0534
     40 C          -2.6018   -7.0919   -0.0279 C.ar    1  LIG1       -0.0013
     41 C          -0.8931   -9.2973   -0.0564 C.ar    1  LIG1       -0.0163
     42 H          -2.6832  -10.4890   -0.0545 H       1  LIG1        0.0624
     43 C          -1.2234   -6.9076   -0.0353 C.ar    1  LIG1       -0.0520
     44 C          -0.3597   -8.0078   -0.0497 C.ar    1  LIG1       -0.0534
     45 H          -0.8175   -5.8992   -0.0295 H       1  LIG1        0.0624
     46 H          -4.4384   -8.6217   -0.0288 H       1  LIG1        0.0624
     47 H           0.9280   -7.8294   -0.0564 H       1  LIG1        0.0624
     48 C           1.2919  -10.1590   -0.0978 C.ar    1  LIG1        0.0363
     49 C          -0.1042  -10.3305   -0.0696 C.ar    1  LIG1        0.0037
     50 C          -0.6163  -11.6292   -0.0559 C.ar    1  LIG1       -0.0088
     51 C           0.2752  -12.7032   -0.0708 C.ar    1  LIG1        0.1446
     52 C           1.6552  -12.4302   -0.0992 C.ar    1  LIG1        0.1295
     53 N           2.1664  -11.1837   -0.1125 N.ar    1  LIG1       -0.2493
     54 H          -1.7016  -11.8025   -0.0348 H       1  LIG1        0.0661
     55 H           1.8162   -8.9695   -0.1113 H       1  LIG1        0.0836
     56 O          -0.1515  -13.9312   -0.0592 O.3     1  LIG1       -0.5046
     57 H           0.5981  -14.5309   -0.0563 H       1  LIG1        0.2922
     58 C           2.5246  -13.3965   -0.1139 C.2     1  LIG1        0.1004
     59 C           2.3455  -14.7440   -0.1242 C.2     1  LIG1        0.1531
     60 C           3.6438  -15.3480   -0.1378 C.2     1  LIG1        0.0710
     61 C           4.5593  -14.3430   -0.1370 C.3     1  LIG1        0.1637
     62 N           3.8784  -13.1466   -0.1218 N.pl3   1  LIG1       -0.3205
     63 H           4.2976  -12.2453   -0.1180 H       1  LIG1        0.1476
     64 O           1.2040  -15.3662   -0.1207 O.2     1  LIG1       -0.5039
     65 H           1.3558  -16.3141   -0.1199 H       1  LIG1        0.2923
     66 C           3.9033  -16.6218   -0.1494 C.1     1  LIG1       -0.1177
     67 C           4.1430  -17.7987   -0.1601 C.2     1  LIG1       -0.0557
     68 H           4.3565  -18.8472   -0.1696 H       1  LIG1        0.0622
     69 C           5.8585  -14.3854   -0.1466 C.ar    1  LIG1        0.1853
     70 C           6.8098  -15.3844   -0.1539 C.ar    1  LIG1        0.2433
     71 C           8.1005  -14.7281   -0.1633 C.ar    1  LIG1        0.1188
     72 C           7.8523  -13.3709   -0.1612 C.ar    1  LIG1        0.1615
     73 O           6.4772  -13.1344   -0.1511 O.2     1  LIG1       -0.4511
     74 O           6.6139  -16.6696   -0.1527 O.3     1  LIG1       -0.2822
     75 C           5.2094  -16.9384   -0.1523 C.3     2  LIG2       -0.0531
     76 H           5.0486  -17.9963   -0.1514 H       1  LIG1        0.0622
     77 H           4.7644  -16.5093    0.7211 H       1  LIG1        0.0265
     78 H           4.7642  -16.5107   -1.0262 H       1  LIG1        0.0265
     79 N           9.2547  -15.3264   -0.1720 N.pl3   1  LIG1       -0.3520
     80 H           9.1720  -16.2032   -0.6457 H       1  LIG1        0.1425
     81 H           9.9236  -14.7535   -0.6457 H       1  LIG1        0.1425
     82 C           7.9784  -11.0252   -0.1691 C.ar    1  LIG1        0.0489
     83 C           8.5829  -12.2957   -0.1664 C.ar    1  LIG1        0.0405
     84 C           9.9769  -12.3707   -0.1691 C.ar    1  LIG1       -0.0449
     85 C          10.7137  -11.1851   -0.1745 C.ar    1  LIG1       -0.0317
     86 C          10.0180   -9.9622   -0.1770 C.ar    1  LIG1        0.0308
     87 N           8.6738   -9.8714   -0.1743 N.ar    1  LIG1       -0.2592
     88 H          10.4847  -13.3456   -0.1682 H       1  LIG1        0.0628
     89 H          10.6596   -8.8316   -0.1820 H       1  LIG1        0.0832
     90 C           6.6838  -10.9039   -0.1666 C.3     1  LIG1       -0.0217
     91 H           6.2481  -11.7405    0.3385 H       1  LIG1        0.0293
     92 H           6.3268  -10.8705   -1.1748 H       1  LIG1        0.0293
     93 H           6.4112  -10.0008    0.3384 H       1  LIG1        0.0293
     94 C          12.0139  -11.2016   -0.1774 C.3     1  LIG1       -0.0383
     95 H          12.3828  -10.3326    0.3262 H       1  LIG1        0.0278
     96 H          12.3684  -11.2061   -1.1870 H       1  LIG1        0.0278
     97 H          12.3605  -12.0798    0.3262 H       1  LIG1        0.0278
@<TRIPOS>BOND
     1    96    94    1
     2    92    90    1
     3    78    75    1
     4    23    21    1
     5    36    34    1
     6    12     9    1
     7    81    79    1
     8    80    79    1
     9    33    31    1
    10    32    31    1
    11    89    86    1
    12    94    85    1
    13    94    97    1
    14    94    95    1
    15    86    85   ar
    16    86    87   ar
    17    85    84   ar
    18    87    82   ar
    19    79    71    1
    20    68    67    1
    21    84    88    1
    22    84    83   ar
    23    82    90    1
    24    82    83   ar
    25    90    93    1
    26    90    91    1
    27    83    72    1
    28    71    72   ar
    29    71    70   ar
    30    72    73   ar
    31    67    76    1
    32    67    66    2
    33    70    74    1
    34    70    69   ar
    35    75    77    1
    36    73    69   ar
    37    66    60    2
    38    69    61    1
    39    60    61    1
    40    60    59    1
    41    61    62    1
    42    59    64    1
    43    59    58    2
    44    62    63    1
    45    62    58    1
    46    64    65    1
    47    58    52    1
    48    53    52   ar
    49    53    48   ar
    50    55    48    1
    51    52    51   ar
    52    48    49   ar
    53    51    56    1
    54    51    50   ar
    55    49    41    1
    56    49    50   ar
    57    56    57    1
    58    41    44   ar
    59    41    39   ar
    60    47    44    1
    61    50    54    1
    62    42    39    1
    63    44    43   ar
    64    39    38   ar
    65    43    45    1
    66    43    40   ar
    67    38    46    1
    68    38    40   ar
    69    30    29    1
    70    40    28    1
    71    29    28   ar
    72    29    25   ar
    73    28    27   ar
    74     2     8    1
    75     2     1   ar
    76     2     3   ar
    77    10     9    1
    78     9     8    1
    79     9    11    1
    80     6     5    1
    81     4    15    1
    82     4     5   ar
    83     4     3   ar
    84    19    15   ar
    85    19    18   ar
    86    15    16   ar
    87    16    20    1
    88    16    17   ar
    89     5     1   ar
    90    18    25    1
    91    18    17   ar
    92     1     7    1
    93    25    26   ar
    94    17    21    1
    95     3    13    1
    96    21    24    1
    97    21    22    1
    98    13    14    1
    99    27    26   ar
   100    27    34    1
   101    26    31    1
   102    34    37    1
   103    34    35    1
