@<TRIPOS>MOLECULE
mol_data/noopt/geoms/mol2/13lf13lf-13lf-13lf.out
 54 56 0 0 0
SMALL
GASTEIGER

@<TRIPOS>ATOM
      1 C           1.1215   -0.3259    0.0002 C.ar    1  LIG1        0.0482
      2 C           0.7176    0.9721   -0.0005 C.ar    1  LIG1        0.1793
      3 C          -0.7144    0.9744    0.0003 C.ar    1  LIG1        0.1859
      4 C          -1.1226   -0.3223   -0.0003 C.ar    1  LIG1        0.1124
      5 N          -0.0018   -1.1217    0.0001 N.ar    1  LIG1       -0.3534
      6 H          -0.0034   -2.1157   -0.0003 H       1  LIG1        0.1656
      7 H           2.3167   -0.8373    0.0007 H       1  LIG1        0.0845
      8 O           1.4918    2.0165   -0.0003 O.3     1  LIG1       -0.4900
      9 C           2.8590    1.5971   -0.0003 C.3     1  LIG1        0.0790
     10 H           3.4958    2.4569   -0.0003 H       1  LIG1        0.0660
     11 H           3.0520    1.0102    0.8734 H       1  LIG1        0.0660
     12 H           3.0520    1.0102   -0.8739 H       1  LIG1        0.0660
     13 O          -1.4853    2.0212    0.0010 O.3     1  LIG1       -0.5019
     14 H          -2.4040    1.7426    0.0012 H       1  LIG1        0.2924
     15 C          -2.3194   -0.8299   -0.0001 C.ar    1  LIG1        0.1131
     16 C          -2.7274   -2.1266   -0.0005 C.ar    1  LIG1        0.1889
     17 C          -4.1594   -2.1244    0.0011 C.ar    1  LIG1        0.1867
     18 C          -4.5635   -0.8264    0.0006 C.ar    1  LIG1        0.1149
     19 N          -3.4402   -0.0305    0.0003 N.ar    1  LIG1       -0.3457
     20 H          -3.4386    0.9635   -0.0001 H       1  LIG1        0.1662
     21 O          -1.9565   -3.1734   -0.0006 O.3     1  LIG1       -0.4895
     22 C          -2.7589   -4.3571   -0.0007 C.3     1  LIG1        0.0791
     23 H          -2.1240   -5.2184   -0.0010 H       1  LIG1        0.0660
     24 H          -3.3764   -4.3695    0.8731 H       1  LIG1        0.0660
     25 H          -3.3767   -4.3691   -0.8742 H       1  LIG1        0.0660
     26 O          -4.9337   -3.1687    0.0023 O.3     1  LIG1       -0.5019
     27 H          -4.3975   -3.9651    0.0026 H       1  LIG1        0.2924
     28 C          -5.7587   -0.3150    0.0014 C.ar    1  LIG1        0.1368
     29 C          -6.9765   -0.9191    0.0015 C.ar    1  LIG1        0.1911
     30 C          -7.9670    0.1151    0.0037 C.ar    1  LIG1        0.1888
     31 C          -7.3109    1.3057    0.0031 C.ar    1  LIG1        0.1368
     32 N          -5.9587    1.0470    0.0022 N.ar    1  LIG1       -0.2359
     33 H          -5.2408    1.7345    0.0016 H       1  LIG1        0.0194
     34 O          -7.1973   -2.2003    0.0012 O.3     1  LIG1       -0.4894
     35 C          -8.6068   -2.4417    0.0010 C.3     1  LIG1        0.0791
     36 H          -8.7881   -3.4962    0.0007 H       1  LIG1        0.0660
     37 H          -9.0435   -2.0050    0.8749 H       1  LIG1        0.0660
     38 H          -9.0434   -2.0044   -0.8724 H       1  LIG1        0.0660
     39 O          -9.2565   -0.0501    0.0054 O.3     1  LIG1       -0.5018
     40 H          -9.4593   -0.9884    0.0059 H       1  LIG1        0.2924
     41 C          -7.7701    2.5219    0.0044 C.ar    1  LIG1        0.1197
     42 C          -7.1139    3.7125    0.0049 C.ar    1  LIG1        0.2467
     43 C          -8.1043    4.7467    0.0074 C.ar    1  LIG1        0.1820
     44 C          -9.3222    4.1427    0.0066 C.ar    1  LIG1        0.0482
     45 N          -9.1222    2.7807    0.0052 N.ar    1  LIG1       -0.3532
     46 H          -9.8401    2.0932    0.0043 H       1  LIG1        0.1656
     47 H         -10.5174    4.6541    0.0080 H       1  LIG1        0.0845
     48 O          -5.8244    3.8776    0.0047 O.3     1  LIG1       -0.2817
     49 C          -5.1797    2.6012    0.0045 C.3     2  LIG2       -0.0776
     50 H          -4.1184    2.7376    0.0042 H       1  LIG1        0.0194
     51 H          -5.4689    2.0555    0.8783 H       1  LIG1        0.0194
     52 H          -5.4694    2.0554   -0.8690 H       1  LIG1        0.0194
     53 O          -7.8835    6.0279    0.0096 O.3     1  LIG1       -0.5022
     54 H          -8.7209    6.4973    0.0102 H       1  LIG1        0.2923
@<TRIPOS>BOND
     1    25    22    1
     2    12     9    1
     3    38    35    1
     4    52    49    1
     5    23    22    1
     6    22    21    1
     7    22    24    1
     8    21    16    1
     9     2     8    1
    10     2     1   ar
    11     2     3   ar
    12    16    15   ar
    13    16    17   ar
    14     4    15    1
    15     4     5   ar
    16     4     3   ar
    17     6     5    1
    18     8     9    1
    19     9    10    1
    20     9    11    1
    21    20    19    1
    22    15    19   ar
    23     5     1   ar
    24     1     7    1
    25     3    13    1
    26    19    18   ar
    27    18    17   ar
    28    18    28    1
    29    36    35    1
    30    13    14    1
    31    35    34    1
    32    35    37    1
    33    17    26    1
    34    34    29    1
    35    28    29   ar
    36    28    32   ar
    37    29    30   ar
    38    33    49    1
    39    32    31   ar
    40    26    27    1
    41    31    30   ar
    42    31    41    1
    43    30    39    1
    44    50    49    1
    45    46    45    1
    46    41    42   ar
    47    41    45   ar
    48    49    51    1
    49    48    42    1
    50    42    43   ar
    51    45    44   ar
    52    39    40    1
    53    44    43   ar
    54    44    47    1
    55    43    53    1
    56    53    54    1
