@<TRIPOS>MOLECULE
mol_data/noopt/geoms/mol2/13lf13lf-13lf.out
 41 42 0 0 0
SMALL
GASTEIGER

@<TRIPOS>ATOM
      1 C           1.1215   -0.3259    0.0002 C.ar    1  LIG1        0.0482
      2 C           0.7176    0.9721   -0.0005 C.ar    1  LIG1        0.1793
      3 C          -0.7144    0.9744    0.0003 C.ar    1  LIG1        0.1860
      4 C          -1.1226   -0.3223   -0.0003 C.ar    1  LIG1        0.1145
      5 N          -0.0018   -1.1217    0.0001 N.ar    1  LIG1       -0.3533
      6 H          -0.0034   -2.1157   -0.0003 H       1  LIG1        0.1656
      7 H           2.3167   -0.8373    0.0007 H       1  LIG1        0.0845
      8 O           1.4918    2.0165   -0.0003 O.3     1  LIG1       -0.4900
      9 C           2.8590    1.5971   -0.0003 C.3     1  LIG1        0.0790
     10 H           3.4958    2.4569   -0.0003 H       1  LIG1        0.0660
     11 H           3.0520    1.0102    0.8734 H       1  LIG1        0.0660
     12 H           3.0520    1.0102   -0.8739 H       1  LIG1        0.0660
     13 O          -1.4853    2.0212    0.0010 O.3     1  LIG1       -0.5019
     14 H          -2.4040    1.7426    0.0012 H       1  LIG1        0.2924
     15 C          -2.3194   -0.8299   -0.0001 C.ar    1  LIG1        0.1368
     16 C          -2.7274   -2.1266   -0.0005 C.ar    1  LIG1        0.1911
     17 C          -4.1594   -2.1244    0.0011 C.ar    1  LIG1        0.1888
     18 C          -4.5635   -0.8264    0.0006 C.ar    1  LIG1        0.1368
     19 N          -3.4402   -0.0305    0.0003 N.ar    1  LIG1       -0.2359
     20 H          -3.4386    0.9635   -0.0001 H       1  LIG1        0.0194
     21 O          -1.9565   -3.1734   -0.0006 O.3     1  LIG1       -0.4894
     22 C          -2.7589   -4.3571   -0.0007 C.3     1  LIG1        0.0791
     23 H          -2.1240   -5.2184   -0.0010 H       1  LIG1        0.0660
     24 H          -3.3764   -4.3695    0.8731 H       1  LIG1        0.0660
     25 H          -3.3767   -4.3691   -0.8742 H       1  LIG1        0.0660
     26 O          -4.9337   -3.1687    0.0023 O.3     1  LIG1       -0.5018
     27 H          -4.3975   -3.9651    0.0026 H       1  LIG1        0.2924
     28 C          -5.7587   -0.3150    0.0014 C.ar    1  LIG1        0.1197
     29 C          -6.1626    0.9830    0.0016 C.ar    1  LIG1        0.2467
     30 C          -7.5946    0.9853    0.0038 C.ar    1  LIG1        0.1820
     31 C          -8.0028   -0.3114    0.0030 C.ar    1  LIG1        0.0482
     32 N          -6.8820   -1.1108    0.0021 N.ar    1  LIG1       -0.3532
     33 H          -6.8836   -2.1048    0.0013 H       1  LIG1        0.1656
     34 H          -9.1996   -0.8190    0.0041 H       1  LIG1        0.0845
     35 O          -5.3884    2.0274    0.0015 O.3     1  LIG1       -0.2817
     36 C          -4.0213    1.6080    0.0014 C.3     2  LIG2       -0.0776
     37 H          -3.3844    2.4678    0.0012 H       1  LIG1        0.0194
     38 H          -3.8281    1.0213    0.8752 H       1  LIG1        0.0194
     39 H          -3.8283    1.0210   -0.8721 H       1  LIG1        0.0194
     40 O          -8.3655    2.0321    0.0056 O.3     1  LIG1       -0.5022
     41 H          -9.2842    1.7535    0.0060 H       1  LIG1        0.2923
@<TRIPOS>BOND
     1    25    22    1
     2    12     9    1
     3    39    36    1
     4    23    22    1
     5    22    21    1
     6    22    24    1
     7    21    16    1
     8     2     8    1
     9     2     1   ar
    10     2     3   ar
    11    16    15   ar
    12    16    17   ar
    13     4    15    1
    14     4     5   ar
    15     4     3   ar
    16     6     5    1
    17     8     9    1
    18     9    10    1
    19     9    11    1
    20    20    36    1
    21    15    19   ar
    22     5     1   ar
    23     1     7    1
    24     3    13    1
    25    19    18   ar
    26    18    17   ar
    27    18    28    1
    28    13    14    1
    29    17    26    1
    30    37    36    1
    31    33    32    1
    32    36    38    1
    33    28    29   ar
    34    28    32   ar
    35    35    29    1
    36    29    30   ar
    37    32    31   ar
    38    26    27    1
    39    31    30   ar
    40    31    34    1
    41    30    40    1
    42    40    41    1
