@<TRIPOS>MOLECULE
mol_data/noopt/geoms/mol2/13lg.out
 15 15 0 0 0
SMALL
GASTEIGER

@<TRIPOS>ATOM
      1 C           1.1215   -0.3259    0.0002 C.ar    1  LIG1        0.0450
      2 C           0.7176    0.9721   -0.0005 C.ar    1  LIG1        0.1504
      3 C          -0.7144    0.9744    0.0003 C.ar    1  LIG1        0.0638
      4 C          -1.1226   -0.3223   -0.0003 C.ar    1  LIG1        0.0186
      5 N          -0.0018   -1.1217    0.0001 N.ar    1  LIG1       -0.3630
      6 H          -0.0034   -2.1157   -0.0003 H       1  LIG1        0.1649
      7 H          -2.3194   -0.8299   -0.0001 H       1  LIG1        0.0819
      8 H           2.3167   -0.8373    0.0007 H       1  LIG1        0.0844
      9 O           1.4918    2.0165   -0.0003 O.3     1  LIG1       -0.4925
     10 C           2.8590    1.5971   -0.0003 C.3     1  LIG1        0.0789
     11 H           3.4958    2.4569   -0.0003 H       1  LIG1        0.0660
     12 H           3.0520    1.0102    0.8734 H       1  LIG1        0.0660
     13 H           3.0520    1.0102   -0.8739 H       1  LIG1        0.0660
     14 S          -1.4853    2.0211    0.0010 S.3     1  LIG1       -0.1377
     15 H          -2.7389    1.6410    0.0012 H       1  LIG1        0.1073
@<TRIPOS>BOND
     1    13    10    1
     2     2     9    1
     3     2     1   ar
     4     2     3   ar
     5     4     7    1
     6     4     5   ar
     7     4     3   ar
     8     6     5    1
     9     9    10    1
    10    10    11    1
    11    10    12    1
    12     5     1   ar
    13     1     8    1
    14     3    14    1
    15    14    15    1
