@<TRIPOS>MOLECULE
mol_data/noopt/geoms/mol2/13lh12al-4ff-13fe-.out
 50 53 0 0 0
SMALL
GASTEIGER

@<TRIPOS>ATOM
      1 C           1.1215   -0.3259    0.0002 C.ar    1  LIG1        0.0463
      2 C           0.7176    0.9721   -0.0005 C.ar    1  LIG1        0.1586
      3 C          -0.7144    0.9744    0.0003 C.ar    1  LIG1        0.0955
      4 C          -1.1226   -0.3223   -0.0003 C.ar    1  LIG1        0.1068
      5 N          -0.0018   -1.1217    0.0001 N.ar    1  LIG1       -0.3537
      6 H          -0.0034   -2.1157   -0.0003 H       1  LIG1        0.1656
      7 H           2.3167   -0.8373    0.0007 H       1  LIG1        0.0845
      8 O           1.4918    2.0165   -0.0003 O.3     1  LIG1       -0.4918
      9 C           2.8590    1.5971   -0.0003 C.3     1  LIG1        0.0789
     10 H           3.4958    2.4569   -0.0003 H       1  LIG1        0.0660
     11 H           3.0520    1.0102    0.8734 H       1  LIG1        0.0660
     12 H           3.0520    1.0102   -0.8739 H       1  LIG1        0.0660
     13 N          -1.4853    2.0212    0.0010 N.pl3   1  LIG1       -0.3534
     14 H          -1.0256    2.7740   -0.4702 H       1  LIG1        0.1425
     15 H          -2.3405    1.8056   -0.4703 H       1  LIG1        0.1425
     16 C          -2.3194   -0.8299   -0.0001 C.ar    1  LIG1        0.1573
     17 C          -3.6025   -0.3232    0.0001 C.ar    1  LIG1        0.0282
     18 C          -4.4979   -1.4613    0.0002 C.ar    1  LIG1        0.1664
     19 C          -3.7022   -2.5884    0.0001 C.ar    1  LIG1        0.1807
     20 O          -2.3550   -2.2250   -0.0002 O.2     1  LIG1       -0.4494
     21 H          -3.9649    0.9252    0.0001 H       1  LIG1        0.0693
     22 O          -5.7966   -1.4035    0.0004 O.3     1  LIG1       -0.4913
     23 C          -6.2135   -0.0356    0.0004 C.3     1  LIG1        0.0790
     24 H          -7.2825    0.0115    0.0004 H       1  LIG1        0.0660
     25 H          -5.8350    0.4526    0.8741 H       1  LIG1        0.0660
     26 H          -5.8350    0.4526   -0.8732 H       1  LIG1        0.0660
     27 C          -5.2332   -4.3659    0.0224 C.ar    1  LIG1        0.1285
     28 C          -5.4087   -5.7632    0.0231 C.ar    1  LIG1       -0.0067
     29 C          -3.9132   -3.8711    0.0002 C.ar    1  LIG1        0.0658
     30 C          -4.3195   -6.6314    0.0020 C.ar    1  LIG1        0.0468
     31 H          -6.4188   -6.1663    0.0402 H       1  LIG1        0.0662
     32 C          -2.8254   -4.7374   -0.0208 C.ar    1  LIG1       -0.0052
     33 C          -3.0203   -6.1225   -0.0201 C.ar    1  LIG1        0.1270
     34 H          -1.8172   -4.3314   -0.0376 H       1  LIG1        0.0662
     35 O          -6.2884   -3.6067    0.0423 O.3     1  LIG1       -0.5060
     36 H          -7.0769   -4.1542    0.0472 H       1  LIG1        0.2922
     37 O          -1.9997   -6.9275   -0.0397 O.3     1  LIG1       -0.5061
     38 H          -1.1877   -6.4153   -0.0445 H       1  LIG1        0.2922
     39 C          -4.5180   -7.9162    0.0032 C.ar    1  LIG1        0.0934
     40 C          -5.6749   -8.6298    0.0203 C.ar    1  LIG1        0.1575
     41 C          -5.3215  -10.0175    0.0138 C.ar    1  LIG1        0.0839
     42 C          -3.9643  -10.0909   -0.0087 C.ar    1  LIG1        0.0213
     43 N          -3.4683   -8.8066   -0.0148 N.ar    1  LIG1       -0.3565
     44 H          -2.5052   -8.5613   -0.0304 H       1  LIG1        0.1655
     45 H          -3.1754  -11.1241   -0.0224 H       1  LIG1        0.0820
     46 O          -6.8787   -8.1392    0.0404 O.3     1  LIG1       -0.5035
     47 H          -7.5169   -8.8563    0.0453 H       1  LIG1        0.2923
     48 C          -6.1439  -11.0242    0.0265 C.1     1  LIG1       -0.0645
     49 C          -6.9039  -11.9544    0.0383 C.1     1  LIG1       -0.1137
     50 H          -7.5808  -12.7830    0.0487 H       1  LIG1        0.1232
@<TRIPOS>BOND
     1    12     9    1
     2    26    23    1
     3    15    13    1
     4    14    13    1
     5    38    37    1
     6    37    33    1
     7    34    32    1
     8    44    43    1
     9    45    42    1
    10    32    33   ar
    11    32    29   ar
    12    33    30   ar
    13    43    42   ar
    14    43    39   ar
    15    42    41   ar
    16     2     8    1
    17     2     1   ar
    18     2     3   ar
    19     4    16    1
    20     4     5   ar
    21     4     3   ar
    22    10     9    1
    23     9     8    1
    24     9    11    1
    25     6     5    1
    26    20    16   ar
    27    20    19   ar
    28    16    17   ar
    29    17    21    1
    30    17    18   ar
    31     5     1   ar
    32    19    29    1
    33    19    18   ar
    34     1     7    1
    35    29    27   ar
    36    18    22    1
    37     3    13    1
    38    24    23    1
    39    23    22    1
    40    23    25    1
    41    30    39    1
    42    30    28   ar
    43    39    40   ar
    44    41    40   ar
    45    41    48    1
    46    40    46    1
    47    27    28   ar
    48    27    35    1
    49    28    31    1
    50    48    49    3
    51    49    50    1
    52    46    47    1
    53    35    36    1
