@<TRIPOS>MOLECULE
mol_data/noopt/geoms/mol2/13lh12fe4ha6ld-.out
 52 55 0 0 0
SMALL
GASTEIGER

@<TRIPOS>ATOM
      1 C           1.1215   -0.3259    0.0002 C.ar    1  LIG1        0.0463
      2 C           0.7176    0.9721   -0.0005 C.ar    1  LIG1        0.1586
      3 C          -0.7144    0.9744    0.0003 C.ar    1  LIG1        0.0956
      4 C          -1.1226   -0.3223   -0.0003 C.ar    1  LIG1        0.1104
      5 N          -0.0018   -1.1217    0.0001 N.ar    1  LIG1       -0.3536
      6 H          -0.0034   -2.1157   -0.0003 H       1  LIG1        0.1656
      7 H           2.3167   -0.8373    0.0007 H       1  LIG1        0.0845
      8 O           1.4918    2.0165   -0.0003 O.3     1  LIG1       -0.4918
      9 C           2.8590    1.5971   -0.0003 C.3     1  LIG1        0.0789
     10 H           3.4958    2.4569   -0.0003 H       1  LIG1        0.0660
     11 H           3.0520    1.0102    0.8734 H       1  LIG1        0.0660
     12 H           3.0520    1.0102   -0.8739 H       1  LIG1        0.0660
     13 N          -1.4853    2.0212    0.0010 N.pl3   1  LIG1       -0.3534
     14 H          -1.0256    2.7740   -0.4702 H       1  LIG1        0.1425
     15 H          -2.3405    1.8056   -0.4703 H       1  LIG1        0.1425
     16 C          -2.3194   -0.8299   -0.0001 C.ar    1  LIG1        0.1961
     17 C          -3.6024   -0.3233    0.0148 C.ar    1  LIG1        0.1806
     18 C          -4.4979   -1.4613    0.0044 C.ar    1  LIG1        0.1125
     19 C          -3.7022   -2.5883   -0.0164 C.ar    1  LIG1        0.1565
     20 O          -2.3551   -2.2249   -0.0196 O.2     1  LIG1       -0.4482
     21 O          -3.9648    0.9250    0.0347 O.3     1  LIG1       -0.5023
     22 H          -4.9232    0.9804    0.0395 H       1  LIG1        0.2923
     23 C          -5.7965   -1.4036    0.0131 C.1     1  LIG1       -0.0622
     24 C          -6.9965   -1.3503    0.0212 C.1     1  LIG1       -0.1137
     25 H          -8.0655   -1.3028    0.0284 H       1  LIG1        0.1232
     26 C          -5.2335   -4.3655   -0.0413 C.ar    1  LIG1        0.0359
     27 C          -5.4091   -5.7627   -0.0579 C.ar    1  LIG1       -0.0325
     28 C          -3.9133   -3.8709   -0.0331 C.ar    1  LIG1        0.0393
     29 C          -4.3197   -6.6310   -0.0665 C.ar    1  LIG1       -0.0110
     30 H          -6.4194   -6.1657   -0.0643 H       1  LIG1        0.0642
     31 C          -2.8254   -4.7372   -0.0417 C.ar    1  LIG1       -0.0487
     32 C          -3.0204   -6.1222   -0.0585 C.ar    1  LIG1       -0.0531
     33 H          -1.8170   -4.3313   -0.0349 H       1  LIG1        0.0625
     34 N          -6.2888   -3.6063   -0.0342 N.pl3   1  LIG1       -0.3574
     35 H          -6.0846   -2.7474   -0.5038 H       1  LIG1        0.1423
     36 H          -7.0383   -4.0729   -0.5039 H       1  LIG1        0.1423
     37 H          -1.9996   -6.9272   -0.0663 H       1  LIG1        0.0624
     38 C          -3.4274   -8.8035   -0.1113 C.ar    1  LIG1        0.2224
     39 C          -4.5183   -7.9156   -0.0819 C.ar    1  LIG1        0.0449
     40 C          -5.8096   -8.4461   -0.0694 C.ar    1  LIG1       -0.0301
     41 C          -5.9665   -9.8331   -0.0868 C.ar    1  LIG1        0.0706
     42 C          -4.8136  -10.6390   -0.1162 C.ar    1  LIG1        0.0488
     43 N          -3.5605  -10.1440   -0.1284 N.ar    1  LIG1       -0.2195
     44 H          -6.6865   -7.7836   -0.0475 H       1  LIG1        0.0639
     45 H          -4.9080  -11.9354   -0.1332 H       1  LIG1        0.0844
     46 O          -2.2063   -8.3576   -0.1238 O.3     1  LIG1       -0.4792
     47 C          -1.2956   -9.4600   -0.1284 C.3     1  LIG1        0.0804
     48 H          -0.2907   -9.0925   -0.1389 H       1  LIG1        0.0660
     49 H          -1.4493  -10.0533    0.7487 H       1  LIG1        0.0660
     50 H          -1.4653  -10.0592   -0.9985 H       1  LIG1        0.0660
     51 N          -8.1894  -10.8549   -0.0672 N.1     1  LIG1       -0.1908
     52 C          -7.1476  -10.3760   -0.0764 C.1     1  LIG1        0.1007
@<TRIPOS>BOND
     1    50    47    1
     2    12     9    1
     3    36    34    1
     4    35    34    1
     5    15    13    1
     6    14    13    1
     7    48    47    1
     8    45    42    1
     9    47    46    1
    10    47    49    1
    11    43    42   ar
    12    43    38   ar
    13    46    38    1
    14    42    41   ar
    15    38    39   ar
    16    41    52    1
    17    41    40   ar
    18    39    40   ar
    19    39    29    1
    20    52    51    3
    21    40    44    1
    22    29    32   ar
    23    29    27   ar
    24    37    32    1
    25    30    27    1
    26    32    31   ar
    27    27    26   ar
    28    31    33    1
    29    31    28   ar
    30    26    34    1
    31    26    28   ar
    32    28    19    1
    33    20    19   ar
    34    20    16   ar
    35    19    18   ar
    36     2     8    1
    37     2     1   ar
    38     2     3   ar
    39    10     9    1
    40     6     5    1
    41     9     8    1
    42     9    11    1
    43     4    16    1
    44     4     5   ar
    45     4     3   ar
    46    16    17   ar
    47     5     1   ar
    48     1     7    1
    49     3    13    1
    50    18    23    1
    51    18    17   ar
    52    23    24    3
    53    17    21    1
    54    24    25    1
    55    21    22    1
