@<TRIPOS>MOLECULE
mol_data/noopt/geoms/mol2/13lh13lh-.out
 30 31 0 0 0
SMALL
GASTEIGER

@<TRIPOS>ATOM
      1 C           1.1215   -0.3259    0.0002 C.ar    1  LIG1        0.0463
      2 C           0.7176    0.9721   -0.0005 C.ar    1  LIG1        0.1585
      3 C          -0.7144    0.9744    0.0003 C.ar    1  LIG1        0.0940
      4 C          -1.1226   -0.3223   -0.0003 C.ar    1  LIG1        0.0912
      5 N          -0.0018   -1.1217    0.0001 N.ar    1  LIG1       -0.3549
      6 H          -0.0034   -2.1157   -0.0003 H       1  LIG1        0.1655
      7 H           2.3167   -0.8373    0.0007 H       1  LIG1        0.0845
      8 O           1.4918    2.0165   -0.0003 O.3     1  LIG1       -0.4918
      9 C           2.8590    1.5971   -0.0003 C.3     1  LIG1        0.0789
     10 H           3.4958    2.4569   -0.0003 H       1  LIG1        0.0660
     11 H           3.0520    1.0102    0.8734 H       1  LIG1        0.0660
     12 H           3.0520    1.0102   -0.8739 H       1  LIG1        0.0660
     13 N          -1.4853    2.0212    0.0010 N.pl3   1  LIG1       -0.3535
     14 H          -1.0256    2.7740   -0.4702 H       1  LIG1        0.1425
     15 H          -2.3405    1.8056   -0.4703 H       1  LIG1        0.1425
     16 C          -2.3194   -0.8299   -0.0001 C.ar    1  LIG1        0.1089
     17 C          -2.7274   -2.1266   -0.0005 C.ar    1  LIG1        0.1673
     18 C          -4.1594   -2.1244    0.0011 C.ar    1  LIG1        0.0851
     19 C          -4.5635   -0.8264    0.0006 C.ar    1  LIG1        0.0267
     20 N          -3.4402   -0.0305    0.0003 N.ar    1  LIG1       -0.3549
     21 H          -3.4386    0.9635   -0.0001 H       1  LIG1        0.1655
     22 H          -5.7587   -0.3150    0.0014 H       1  LIG1        0.0827
     23 O          -1.9565   -3.1734   -0.0006 O.3     1  LIG1       -0.4911
     24 C          -2.7589   -4.3571   -0.0007 C.3     1  LIG1        0.0790
     25 H          -2.1240   -5.2184   -0.0010 H       1  LIG1        0.0660
     26 H          -3.3764   -4.3695    0.8731 H       1  LIG1        0.0660
     27 H          -3.3767   -4.3691   -0.8742 H       1  LIG1        0.0660
     28 N          -4.9336   -3.1687    0.0023 N.pl3   1  LIG1       -0.3540
     29 H          -5.7883   -2.9506   -0.4688 H       1  LIG1        0.1425
     30 H          -4.4765   -3.9231   -0.4688 H       1  LIG1        0.1425
@<TRIPOS>BOND
     1    27    24    1
     2    12     9    1
     3    15    13    1
     4    14    13    1
     5    30    28    1
     6    29    28    1
     7    25    24    1
     8    24    23    1
     9    24    26    1
    10    23    17    1
    11     2     8    1
    12     2     1   ar
    13     2     3   ar
    14    17    16   ar
    15    17    18   ar
    16     9    10    1
    17     9     8    1
    18     9    11    1
    19     6     5    1
    20     4    16    1
    21     4     5   ar
    22     4     3   ar
    23    21    20    1
    24    16    20   ar
    25     5     1   ar
    26     1     7    1
    27     3    13    1
    28    20    19   ar
    29    19    18   ar
    30    19    22    1
    31    18    28    1
