@<TRIPOS>MOLECULE
mol_data/noopt/geoms/mol2/13lh13ia-6la6ll.out
 57 60 0 0 0
SMALL
GASTEIGER

@<TRIPOS>ATOM
      1 C           1.1215   -0.3259    0.0002 C.ar    1  LIG1        0.0463
      2 C           0.7176    0.9721   -0.0005 C.ar    1  LIG1        0.1585
      3 C          -0.7144    0.9744    0.0003 C.ar    1  LIG1        0.0939
      4 C          -1.1226   -0.3223   -0.0003 C.ar    1  LIG1        0.0877
      5 N          -0.0018   -1.1217    0.0001 N.ar    1  LIG1       -0.3550
      6 H          -0.0034   -2.1157   -0.0003 H       1  LIG1        0.1655
      7 H           2.3167   -0.8373    0.0007 H       1  LIG1        0.0845
      8 O           1.4918    2.0165   -0.0003 O.3     1  LIG1       -0.4918
      9 C           2.8590    1.5971   -0.0003 C.3     1  LIG1        0.0789
     10 H           3.4958    2.4569   -0.0003 H       1  LIG1        0.0660
     11 H           3.0520    1.0102    0.8734 H       1  LIG1        0.0660
     12 H           3.0520    1.0102   -0.8739 H       1  LIG1        0.0660
     13 N          -1.4853    2.0212    0.0010 N.pl3   1  LIG1       -0.3535
     14 H          -1.0256    2.7740   -0.4702 H       1  LIG1        0.1425
     15 H          -2.3405    1.8056   -0.4703 H       1  LIG1        0.1425
     16 C          -2.3194   -0.8299   -0.0001 C.ar    1  LIG1        0.0682
     17 C          -3.5353   -0.2219   -0.0003 C.ar    1  LIG1       -0.0231
     18 C          -4.5290   -1.2530    0.0012 C.ar    1  LIG1       -0.0327
     19 C          -3.8767   -2.4457    0.0005 C.ar    1  LIG1        0.0523
     20 N          -2.5238   -2.1913    0.0002 N.ar    1  LIG1       -0.3526
     21 H          -1.8081   -2.8811   -0.0004 H       1  LIG1        0.1660
     22 C          -3.7520    1.0602   -0.0003 C.3     1  LIG1       -0.0376
     23 H          -4.6729    1.2662    0.5041 H       1  LIG1        0.0278
     24 H          -3.8116    1.4119   -1.0091 H       1  LIG1        0.0278
     25 H          -2.9500    1.5575    0.5041 H       1  LIG1        0.0278
     26 H          -5.8179   -1.0837    0.0025 H       1  LIG1        0.0642
     27 C          -3.4588   -4.7574    0.0017 C.ar    1  LIG1        0.2244
     28 C          -4.3398   -3.6604    0.0012 C.ar    1  LIG1        0.0598
     29 C          -5.7136   -3.9087    0.0017 C.ar    1  LIG1       -0.0455
     30 C          -6.1573   -5.2322    0.0026 C.ar    1  LIG1       -0.0347
     31 C          -5.1985   -6.2619    0.0029 C.ar    1  LIG1        0.0800
     32 N          -3.8695   -6.0404    0.0026 N.ar    1  LIG1       -0.2122
     33 H          -6.4324   -3.0771    0.0003 H       1  LIG1        0.0626
     34 O          -2.1713   -4.5770    0.0014 O.3     1  LIG1       -0.4792
     35 C          -1.5117   -5.8458    0.0011 C.3     1  LIG1        0.0804
     36 H          -0.4521   -5.6969    0.0007 H       1  LIG1        0.0660
     37 H          -1.7943   -6.3949    0.8750 H       1  LIG1        0.0660
     38 H          -1.7951   -6.3950   -0.8723 H       1  LIG1        0.0660
     39 H          -7.4260   -5.5158    0.0029 H       1  LIG1        0.0639
     40 C          -4.5957   -8.5324    0.0044 C.ar    1  LIG1        0.2241
     41 C          -5.5622   -7.5100    0.0038 C.ar    1  LIG1        0.0654
     42 C          -6.9116   -7.8681    0.0044 C.ar    1  LIG1       -0.0042
     43 C          -7.2472   -9.2231    0.0055 C.ar    1  LIG1        0.1390
     44 C          -6.2085  -10.1722    0.0058 C.ar    1  LIG1        0.0730
     45 N          -4.9017   -9.8443    0.0054 N.ar    1  LIG1       -0.2171
     46 H          -7.6950   -7.0971    0.0029 H       1  LIG1        0.0663
     47 H          -6.4706  -11.4455    0.0069 H       1  LIG1        0.0868
     48 O          -3.3270   -8.2489    0.0039 O.3     1  LIG1       -0.4792
     49 C          -2.5673   -9.4604    0.0037 C.3     1  LIG1        0.0804
     50 H          -1.5231   -9.2267    0.0031 H       1  LIG1        0.0660
     51 H          -2.8047  -10.0305    0.8776 H       1  LIG1        0.0660
     52 H          -2.8055  -10.0307   -0.8697 H       1  LIG1        0.0660
     53 O          -8.4890   -9.6079    0.0059 O.3     1  LIG1       -0.4936
     54 C          -9.3439   -8.4616    0.0060 C.3     1  LIG1        0.0789
     55 H         -10.3658   -8.7787    0.0062 H       1  LIG1        0.0660
     56 H          -9.1526   -7.8740    0.8797 H       1  LIG1        0.0660
     57 H          -9.1529   -7.8741   -0.8676 H       1  LIG1        0.0660
@<TRIPOS>BOND
     1    24    22    1
     2    12     9    1
     3    38    35    1
     4    52    49    1
     5    57    54    1
     6    15    13    1
     7    14    13    1
     8     2     8    1
     9     2     1   ar
    10     2     3   ar
    11    21    20    1
    12    17    22    1
    13    17    16   ar
    14    17    18   ar
    15    10     9    1
    16     9     8    1
    17     9    11    1
    18     6     5    1
    19     4    16    1
    20     4     5   ar
    21     4     3   ar
    22    22    25    1
    23    22    23    1
    24    16    20   ar
    25     5     1   ar
    26    20    19   ar
    27     1     7    1
    28     3    13    1
    29    33    29    1
    30    19    18   ar
    31    19    28    1
    32    36    35    1
    33    35    34    1
    34    35    37    1
    35    18    26    1
    36    28    27   ar
    37    28    29   ar
    38    34    27    1
    39    27    32   ar
    40    29    30   ar
    41    32    31   ar
    42    30    31   ar
    43    30    39    1
    44    31    41    1
    45    46    42    1
    46    50    49    1
    47    49    48    1
    48    49    51    1
    49    41    40   ar
    50    41    42   ar
    51    48    40    1
    52    40    45   ar
    53    42    43   ar
    54    45    44   ar
    55    43    44   ar
    56    43    53    1
    57    44    47    1
    58    53    54    1
    59    54    55    1
    60    54    56    1
