@<TRIPOS>MOLECULE
mol_data/noopt/geoms/mol2/13lh6dl-13if-12ia.out
 52 54 0 0 0
SMALL
GASTEIGER

@<TRIPOS>ATOM
      1 C           1.1215   -0.3259    0.0002 C.ar    1  LIG1        0.0463
      2 C           0.7176    0.9721   -0.0005 C.ar    1  LIG1        0.1585
      3 C          -0.7144    0.9744    0.0003 C.ar    1  LIG1        0.0925
      4 C          -1.1226   -0.3223   -0.0003 C.ar    1  LIG1        0.0739
      5 N          -0.0018   -1.1217    0.0001 N.ar    1  LIG1       -0.3560
      6 H          -0.0034   -2.1157   -0.0003 H       1  LIG1        0.1655
      7 H           2.3167   -0.8373    0.0007 H       1  LIG1        0.0845
      8 O           1.4918    2.0165   -0.0003 O.3     1  LIG1       -0.4918
      9 C           2.8590    1.5971   -0.0003 C.3     1  LIG1        0.0789
     10 H           3.4958    2.4569   -0.0003 H       1  LIG1        0.0660
     11 H           3.0520    1.0102    0.8734 H       1  LIG1        0.0660
     12 H           3.0520    1.0102   -0.8739 H       1  LIG1        0.0660
     13 N          -1.4853    2.0212    0.0010 N.pl3   1  LIG1       -0.3535
     14 H          -1.0256    2.7740   -0.4702 H       1  LIG1        0.1425
     15 H          -2.3405    1.8056   -0.4703 H       1  LIG1        0.1425
     16 C          -2.5002   -2.2250   -0.0210 C.ar    1  LIG1        0.1501
     17 C          -2.3194   -0.8299   -0.0001 C.ar    1  LIG1        0.0397
     18 C          -3.4501   -0.0114    0.0210 C.ar    1  LIG1       -0.0008
     19 C          -4.7120   -0.6083    0.0204 C.ar    1  LIG1        0.2069
     20 C          -4.7903   -2.0130   -0.0016 C.ar    1  LIG1        0.1354
     21 N          -3.7099   -2.8177   -0.0220 N.ar    1  LIG1       -0.2304
     22 H          -3.3484    1.0830    0.0367 H       1  LIG1        0.0664
     23 N          -0.5770   -3.7369   -0.0586 N.1     1  LIG1       -0.1893
     24 C          -1.4783   -3.0283   -0.0410 C.1     1  LIG1        0.1198
     25 O          -5.7953    0.1100    0.0393 O.3     1  LIG1       -0.2856
     26 C          -5.4481    1.4972    0.0462 C.3     2  LIG2       -0.0681
     27 H          -6.3401    2.0881    0.0617 H       1  LIG1        0.0227
     28 H          -4.8617    1.7138    0.9147 H       1  LIG1        0.0227
     29 H          -4.8828    1.7278   -0.8324 H       1  LIG1        0.0227
     30 C          -5.9424   -2.6153   -0.0030 C.ar    1  LIG1        0.0758
     31 C          -7.2032   -2.1072   -0.0044 C.ar    1  LIG1        0.0186
     32 C          -8.1107   -3.2150   -0.0045 C.ar    1  LIG1        0.1486
     33 C          -7.3644   -4.3513   -0.0050 C.ar    1  LIG1        0.1250
     34 N          -6.0364   -3.9887   -0.0037 N.ar    1  LIG1       -0.3473
     35 H          -5.2674   -4.6186   -0.0038 H       1  LIG1        0.1662
     36 C          -7.5226   -0.8467   -0.0040 C.3     1  LIG1       -0.0342
     37 H          -8.4570   -0.7157    0.5006 H       1  LIG1        0.0279
     38 H          -7.6103   -0.5007   -1.0127 H       1  LIG1        0.0279
     39 H          -6.7632   -0.2866    0.5005 H       1  LIG1        0.0279
     40 O          -9.4091   -3.1501   -0.0046 O.3     1  LIG1       -0.5043
     41 H          -9.7743   -4.0379   -0.0046 H       1  LIG1        0.2922
     42 C          -7.7282   -5.5993   -0.0055 C.ar    1  LIG1        0.1573
     43 C          -8.9322   -6.2727   -0.0058 C.ar    1  LIG1       -0.0032
     44 C          -8.6169   -7.6861   -0.0062 C.ar    1  LIG1       -0.0203
     45 C          -7.2406   -7.7826   -0.0062 C.ar    1  LIG1        0.0929
     46 O          -6.6701   -6.5093   -0.0059 O.2     1  LIG1       -0.4611
     47 H          -6.3804   -8.7574   -0.0065 H       1  LIG1        0.1029
     48 C         -10.1287   -5.7638   -0.0056 C.3     1  LIG1       -0.0361
     49 H         -10.7989   -6.4281    0.4988 H       1  LIG1        0.0279
     50 H         -10.4571   -5.6242   -1.0144 H       1  LIG1        0.0279
     51 H         -10.1149   -4.8202    0.4988 H       1  LIG1        0.0279
     52 H          -9.4831   -8.6555   -0.0066 H       1  LIG1        0.0652
@<TRIPOS>BOND
     1    50    48    1
     2    38    36    1
     3    12     9    1
     4    29    26    1
     5    15    13    1
     6    14    13    1
     7    23    24    3
     8    24    16    1
     9    21    16   ar
    10    21    20   ar
    11    16    17   ar
    12    52    44    1
    13    47    45    1
    14    45    44   ar
    15    45    46   ar
    16    44    43   ar
    17    46    42   ar
    18    43    48    1
    19    43    42   ar
    20    48    51    1
    21    48    49    1
    22    42    33    1
    23    33    32   ar
    24    33    34   ar
    25    41    40    1
    26    40    32    1
    27    32    31   ar
    28    31    36    1
    29    31    30   ar
    30    36    39    1
    31    36    37    1
    32    35    34    1
    33    34    30   ar
    34    30    20    1
    35    20    19   ar
    36     2     8    1
    37     2     1   ar
    38     2     3   ar
    39     4    17    1
    40     4     5   ar
    41     4     3   ar
    42    10     9    1
    43     6     5    1
    44     8     9    1
    45     9    11    1
    46    17    18   ar
    47     5     1   ar
    48     1     7    1
    49     3    13    1
    50    19    18   ar
    51    19    25    1
    52    18    22    1
    53    26    27    1
    54    26    28    1
