@<TRIPOS>MOLECULE
mol_data/noopt/geoms/mol2/13lh13lh-13lh.out
 44 45 0 0 0
SMALL
GASTEIGER

@<TRIPOS>ATOM
      1 C           1.1215   -0.3259    0.0002 C.ar    1  LIG1        0.0463
      2 C           0.7176    0.9721   -0.0005 C.ar    1  LIG1        0.1585
      3 C          -0.7144    0.9744    0.0003 C.ar    1  LIG1        0.0941
      4 C          -1.1226   -0.3223   -0.0003 C.ar    1  LIG1        0.0932
      5 N          -0.0018   -1.1217    0.0001 N.ar    1  LIG1       -0.3548
      6 H          -0.0034   -2.1157   -0.0003 H       1  LIG1        0.1655
      7 H           2.3167   -0.8373    0.0007 H       1  LIG1        0.0845
      8 O           1.4918    2.0165   -0.0003 O.3     1  LIG1       -0.4918
      9 C           2.8590    1.5971   -0.0003 C.3     1  LIG1        0.0789
     10 H           3.4958    2.4569   -0.0003 H       1  LIG1        0.0660
     11 H           3.0520    1.0102    0.8734 H       1  LIG1        0.0660
     12 H           3.0520    1.0102   -0.8739 H       1  LIG1        0.0660
     13 N          -1.4853    2.0212    0.0010 N.pl3   1  LIG1       -0.3535
     14 H          -1.0256    2.7740   -0.4702 H       1  LIG1        0.1425
     15 H          -2.3405    1.8056   -0.4703 H       1  LIG1        0.1425
     16 C          -2.3194   -0.8299   -0.0001 C.ar    1  LIG1        0.1331
     17 C          -2.7274   -2.1266   -0.0005 C.ar    1  LIG1        0.1701
     18 C          -4.1594   -2.1244    0.0011 C.ar    1  LIG1        0.0969
     19 C          -4.5635   -0.8264    0.0006 C.ar    1  LIG1        0.1160
     20 N          -3.4402   -0.0305    0.0003 N.ar    1  LIG1       -0.2379
     21 H          -3.4386    0.9635   -0.0001 H       1  LIG1        0.0194
     22 O          -1.9565   -3.1734   -0.0006 O.3     1  LIG1       -0.4910
     23 C          -2.7589   -4.3571   -0.0007 C.3     1  LIG1        0.0790
     24 H          -2.1240   -5.2184   -0.0010 H       1  LIG1        0.0660
     25 H          -3.3764   -4.3695    0.8731 H       1  LIG1        0.0660
     26 H          -3.3767   -4.3691   -0.8742 H       1  LIG1        0.0660
     27 N          -4.9336   -3.1687    0.0023 N.pl3   1  LIG1       -0.3534
     28 H          -5.7883   -2.9506   -0.4688 H       1  LIG1        0.1425
     29 H          -4.4765   -3.9231   -0.4688 H       1  LIG1        0.1425
     30 C          -5.7587   -0.3150    0.0014 C.ar    1  LIG1        0.1161
     31 C          -6.1626    0.9830    0.0016 C.ar    1  LIG1        0.2261
     32 C          -7.5946    0.9853    0.0038 C.ar    1  LIG1        0.0902
     33 C          -8.0028   -0.3114    0.0030 C.ar    1  LIG1        0.0269
     34 N          -6.8820   -1.1108    0.0021 N.ar    1  LIG1       -0.3547
     35 H          -6.8836   -2.1048    0.0013 H       1  LIG1        0.1655
     36 H          -9.1996   -0.8190    0.0041 H       1  LIG1        0.0827
     37 O          -5.3884    2.0274    0.0015 O.3     1  LIG1       -0.2836
     38 C          -4.0213    1.6080    0.0014 C.3     2  LIG2       -0.0776
     39 H          -3.3844    2.4678    0.0012 H       1  LIG1        0.0194
     40 H          -3.8281    1.0213    0.8752 H       1  LIG1        0.0194
     41 H          -3.8283    1.0210   -0.8721 H       1  LIG1        0.0194
     42 N          -8.3655    2.0321    0.0056 N.pl3   1  LIG1       -0.3538
     43 H          -7.9061    2.7852   -0.4653 H       1  LIG1        0.1425
     44 H          -9.2210    1.8169   -0.4654 H       1  LIG1        0.1425
@<TRIPOS>BOND
     1    26    23    1
     2    12     9    1
     3    41    38    1
     4    15    13    1
     5    14    13    1
     6    29    27    1
     7    28    27    1
     8    44    42    1
     9    43    42    1
    10    24    23    1
    11    23    22    1
    12    23    25    1
    13    22    17    1
    14     2     8    1
    15     2     1   ar
    16     2     3   ar
    17    17    16   ar
    18    17    18   ar
    19     6     5    1
    20     4    16    1
    21     4     5   ar
    22     4     3   ar
    23     8     9    1
    24     9    10    1
    25     9    11    1
    26    21    38    1
    27    16    20   ar
    28     5     1   ar
    29     1     7    1
    30     3    13    1
    31    20    19   ar
    32    19    18   ar
    33    19    30    1
    34    18    27    1
    35    39    38    1
    36    35    34    1
    37    38    40    1
    38    30    31   ar
    39    30    34   ar
    40    37    31    1
    41    31    32   ar
    42    34    33   ar
    43    33    32   ar
    44    33    36    1
    45    32    42    1
