@<TRIPOS>MOLECULE
mol_data/noopt/geoms/mol2/13lh13lh-13lh-13lh-.out
 58 61 0 0 0
SMALL
GASTEIGER

@<TRIPOS>ATOM
      1 C           1.1215   -0.3259    0.0002 C.ar    1  LIG1        0.0463
      2 C           0.7176    0.9721   -0.0005 C.ar    1  LIG1        0.1585
      3 C          -0.7144    0.9744    0.0003 C.ar    1  LIG1        0.0940
      4 C          -1.1226   -0.3223   -0.0003 C.ar    1  LIG1        0.0912
      5 N          -0.0018   -1.1217    0.0001 N.ar    1  LIG1       -0.3549
      6 H          -0.0034   -2.1157   -0.0003 H       1  LIG1        0.1655
      7 H           2.3167   -0.8373    0.0007 H       1  LIG1        0.0845
      8 O           1.4918    2.0165   -0.0003 O.3     1  LIG1       -0.4918
      9 C           2.8590    1.5971   -0.0003 C.3     1  LIG1        0.0789
     10 H           3.4958    2.4569   -0.0003 H       1  LIG1        0.0660
     11 H           3.0520    1.0102    0.8734 H       1  LIG1        0.0660
     12 H           3.0520    1.0102   -0.8739 H       1  LIG1        0.0660
     13 N          -1.4853    2.0212    0.0010 N.pl3   1  LIG1       -0.3535
     14 H          -1.0256    2.7740   -0.4702 H       1  LIG1        0.1425
     15 H          -2.3405    1.8056   -0.4703 H       1  LIG1        0.1425
     16 C          -2.3194   -0.8299   -0.0001 C.ar    1  LIG1        0.1094
     17 C          -2.7274   -2.1266   -0.0005 C.ar    1  LIG1        0.1679
     18 C          -4.1594   -2.1244    0.0011 C.ar    1  LIG1        0.0947
     19 C          -4.5635   -0.8264    0.0006 C.ar    1  LIG1        0.0917
     20 N          -3.4402   -0.0305    0.0003 N.ar    1  LIG1       -0.3473
     21 H          -3.4386    0.9635   -0.0001 H       1  LIG1        0.1662
     22 O          -1.9565   -3.1734   -0.0006 O.3     1  LIG1       -0.4911
     23 C          -2.7589   -4.3571   -0.0007 C.3     1  LIG1        0.0790
     24 H          -2.1240   -5.2184   -0.0010 H       1  LIG1        0.0660
     25 H          -3.3764   -4.3695    0.8731 H       1  LIG1        0.0660
     26 H          -3.3767   -4.3691   -0.8742 H       1  LIG1        0.0660
     27 N          -4.9336   -3.1687    0.0023 N.pl3   1  LIG1       -0.3534
     28 H          -5.7883   -2.9506   -0.4688 H       1  LIG1        0.1425
     29 H          -4.4765   -3.9231   -0.4688 H       1  LIG1        0.1425
     30 C          -5.7587   -0.3150    0.0014 C.ar    1  LIG1        0.1094
     31 C          -6.9765   -0.9191    0.0015 C.ar    1  LIG1        0.1679
     32 C          -7.9670    0.1151    0.0037 C.ar    1  LIG1        0.0947
     33 C          -7.3109    1.3057    0.0031 C.ar    1  LIG1        0.0916
     34 N          -5.9587    1.0470    0.0022 N.ar    1  LIG1       -0.3473
     35 H          -5.2408    1.7345    0.0016 H       1  LIG1        0.1662
     36 O          -7.1973   -2.2003    0.0012 O.3     1  LIG1       -0.4911
     37 C          -8.6068   -2.4417    0.0010 C.3     1  LIG1        0.0790
     38 H          -8.7881   -3.4962    0.0007 H       1  LIG1        0.0660
     39 H          -9.0435   -2.0050    0.8749 H       1  LIG1        0.0660
     40 H          -9.0434   -2.0044   -0.8724 H       1  LIG1        0.0660
     41 N          -9.2564   -0.0501    0.0054 N.pl3   1  LIG1       -0.3534
     42 H          -9.6914    0.7174   -0.4655 H       1  LIG1        0.1425
     43 H          -9.4839   -0.9024   -0.4656 H       1  LIG1        0.1425
     44 C          -7.7701    2.5219    0.0044 C.ar    1  LIG1        0.1089
     45 C          -9.0494    2.9816    0.0047 C.ar    1  LIG1        0.1673
     46 C          -8.9898    4.4124    0.0074 C.ar    1  LIG1        0.0851
     47 C          -7.6767    4.7641    0.0068 C.ar    1  LIG1        0.0267
     48 N          -6.9265    3.6098    0.0054 N.ar    1  LIG1       -0.3549
     49 H          -5.9333    3.5684    0.0046 H       1  LIG1        0.1655
     50 H          -7.1178    5.9378    0.0083 H       1  LIG1        0.0827
     51 O         -10.1263    2.2532    0.0043 O.3     1  LIG1       -0.4911
     52 C         -11.2768    3.1024    0.0041 C.3     1  LIG1        0.0790
     53 H         -12.1629    2.5026    0.0037 H       1  LIG1        0.0660
     54 H         -11.2646    3.7199    0.8780 H       1  LIG1        0.0660
     55 H         -11.2640    3.7203   -0.8693 H       1  LIG1        0.0660
     56 N         -10.0023    5.2278    0.0095 N.pl3   1  LIG1       -0.3540
     57 H          -9.7503    6.0732   -0.4614 H       1  LIG1        0.1425
     58 H         -10.7746    4.8015   -0.4614 H       1  LIG1        0.1425
@<TRIPOS>BOND
     1    26    23    1
     2    12     9    1
     3    40    37    1
     4    55    52    1
     5    15    13    1
     6    14    13    1
     7    29    27    1
     8    28    27    1
     9    43    41    1
    10    42    41    1
    11    58    56    1
    12    57    56    1
    13    24    23    1
    14    23    22    1
    15    23    25    1
    16    22    17    1
    17     2     8    1
    18     2     1   ar
    19     2     3   ar
    20    17    16   ar
    21    17    18   ar
    22     4    16    1
    23     4     5   ar
    24     4     3   ar
    25     6     5    1
    26    10     9    1
    27     9     8    1
    28     9    11    1
    29    21    20    1
    30    16    20   ar
    31     5     1   ar
    32     1     7    1
    33     3    13    1
    34    20    19   ar
    35    19    18   ar
    36    19    30    1
    37    38    37    1
    38    37    36    1
    39    37    39    1
    40    18    27    1
    41    36    31    1
    42    30    31   ar
    43    30    34   ar
    44    31    32   ar
    45    35    34    1
    46    34    33   ar
    47    33    32   ar
    48    33    44    1
    49    53    52    1
    50    32    41    1
    51    52    51    1
    52    52    54    1
    53    51    45    1
    54    44    45   ar
    55    44    48   ar
    56    49    48    1
    57    45    46   ar
    58    48    47   ar
    59    47    46   ar
    60    47    50    1
    61    46    56    1
