@<TRIPOS>MOLECULE
mol_data/noopt/geoms/mol2/13lh4af(60)13fl(220)13hh(350).out
 52 54 0 0 0
SMALL
GASTEIGER

@<TRIPOS>ATOM
      1 C           1.1215   -0.3259    0.0002 C.ar    1  LIG1        0.0463
      2 C           0.7176    0.9721   -0.0005 C.ar    1  LIG1        0.1585
      3 C          -0.7144    0.9744    0.0003 C.ar    1  LIG1        0.0925
      4 C          -1.1226   -0.3223   -0.0003 C.ar    1  LIG1        0.0711
      5 N          -0.0018   -1.1217    0.0001 N.ar    1  LIG1       -0.3561
      6 H          -0.0034   -2.1157   -0.0003 H       1  LIG1        0.1655
      7 H           2.3167   -0.8373    0.0007 H       1  LIG1        0.0845
      8 O           1.4918    2.0165   -0.0003 O.3     1  LIG1       -0.4918
      9 C           2.8590    1.5971   -0.0003 C.3     1  LIG1        0.0789
     10 H           3.4958    2.4569   -0.0003 H       1  LIG1        0.0660
     11 H           3.0520    1.0102    0.8734 H       1  LIG1        0.0660
     12 H           3.0520    1.0102   -0.8739 H       1  LIG1        0.0660
     13 N          -1.4853    2.0212    0.0010 N.pl3   1  LIG1       -0.3535
     14 H          -1.0256    2.7740   -0.4702 H       1  LIG1        0.1425
     15 H          -2.3405    1.8056   -0.4703 H       1  LIG1        0.1425
     16 C          -3.2043   -0.5420    1.0590 C.ar    1  LIG1       -0.0519
     17 C          -4.4889   -1.1174    1.0136 C.ar    1  LIG1       -0.0513
     18 C          -2.3194   -0.8299   -0.0001 C.ar    1  LIG1        0.0008
     19 C          -4.8775   -1.9427   -0.0392 C.ar    1  LIG1        0.0098
     20 H          -5.1875   -0.9085    1.8207 H       1  LIG1        0.0624
     21 C          -2.7068   -1.6538   -1.0514 C.ar    1  LIG1       -0.0442
     22 C          -3.9875   -2.2156   -1.0787 C.ar    1  LIG1       -0.0074
     23 H          -2.0062   -1.8608   -1.8563 H       1  LIG1        0.0630
     24 H          -2.8997    0.2200    2.0673 H       1  LIG1        0.0624
     25 O          -4.3441   -2.9852   -2.0640 O.3     2  HOH2       -0.2528
     26 H          -3.6109   -3.5553   -2.3068 H       0  HOH0        0.2528
     27 C          -6.0714   -2.4571   -0.0493 C.ar    1  LIG1        0.0933
     28 C          -6.5527   -3.5565   -0.6878 C.ar    1  LIG1        0.1850
     29 C          -7.9411   -3.6701   -0.3562 C.ar    1  LIG1        0.1888
     30 C          -8.2468   -2.6362    0.4718 C.ar    1  LIG1        0.1112
     31 N          -7.1051   -1.8908    0.6619 N.ar    1  LIG1       -0.3471
     32 H          -7.0377   -1.0738    1.2241 H       1  LIG1        0.1662
     33 O          -5.8746   -4.3545   -1.4582 O.3     1  LIG1       -0.5019
     34 H          -5.0178   -3.9652   -1.6481 H       1  LIG1        0.2924
     35 O          -8.7611   -4.5909   -0.7685 O.3     1  LIG1       -0.4895
     36 C         -10.0688   -4.0324   -0.9199 C.3     1  LIG1        0.0791
     37 H         -10.7433   -4.7905   -1.2594 H       1  LIG1        0.0660
     38 H         -10.4052   -3.6514    0.0217 H       1  LIG1        0.0660
     39 H         -10.0365   -3.2374   -1.6353 H       1  LIG1        0.0660
     40 C          -9.3718   -2.3124    1.0371 C.ar    1  LIG1        0.0894
     41 C          -9.9220   -1.0916    1.2711 C.ar    1  LIG1        0.0727
     42 C         -11.1772   -1.3066    1.9261 C.ar    1  LIG1        0.0637
     43 C         -11.3396   -2.6494    2.0620 C.ar    1  LIG1        0.0249
     44 N         -10.2364   -3.2690    1.5194 N.ar    1  LIG1       -0.3563
     45 H         -10.0880   -4.2511    1.4814 H       1  LIG1        0.1655
     46 H         -12.3119   -3.3325    2.5893 H       1  LIG1        0.0826
     47 N          -9.4009    0.0575    0.9580 N.pl3   1  LIG1       -0.3549
     48 H          -8.5706   -0.0885    0.4201 H       1  LIG1        0.1424
     49 H         -10.0577    0.5859    0.4201 H       1  LIG1        0.1424
     50 N         -12.0105   -0.3895    2.3194 N.pl3   1  LIG1       -0.3554
     51 H         -11.7157    0.5002    1.9709 H       1  LIG1        0.1424
     52 H         -12.9243   -0.5979    1.9709 H       1  LIG1        0.1424
@<TRIPOS>BOND
     1    26    25    1
     2    23    21    1
     3    34    33    1
     4    39    36    1
     5    33    28    1
     6    37    36    1
     7    22    21   ar
     8    22    19   ar
     9    21    18   ar
    10    36    35    1
    11    36    38    1
    12    12     9    1
    13    35    29    1
    14    28    29   ar
    15    28    27   ar
    16    15    13    1
    17    14    13    1
    18    29    30   ar
    19    27    19    1
    20    27    31   ar
    21    19    17   ar
    22     2     8    1
    23     2     1   ar
    24     2     3   ar
    25    10     9    1
    26     9     8    1
    27     9    11    1
    28     6     5    1
    29     4    18    1
    30     4     5   ar
    31     4     3   ar
    32    18    16   ar
    33     5     1   ar
    34     1     7    1
    35     3    13    1
    36    49    47    1
    37    48    47    1
    38    30    31   ar
    39    30    40    1
    40    31    32    1
    41    47    41    1
    42    17    16   ar
    43    17    20    1
    44    40    41   ar
    45    40    44   ar
    46    16    24    1
    47    41    42   ar
    48    45    44    1
    49    44    43   ar
    50    42    43   ar
    51    42    50    1
    52    52    50    1
    53    51    50    1
    54    43    46    1
