@<TRIPOS>MOLECULE
mol_data/noopt/geoms/mol2/13lh13lh-13lh13lh-.out
 58 60 0 0 0
SMALL
GASTEIGER

@<TRIPOS>ATOM
      1 C           1.1215   -0.3259    0.0002 C.ar    1  LIG1        0.0463
      2 C           0.7176    0.9721   -0.0005 C.ar    1  LIG1        0.1585
      3 C          -0.7144    0.9744    0.0003 C.ar    1  LIG1        0.0941
      4 C          -1.1226   -0.3223   -0.0003 C.ar    1  LIG1        0.0932
      5 N          -0.0018   -1.1217    0.0001 N.ar    1  LIG1       -0.3548
      6 H          -0.0034   -2.1157   -0.0003 H       1  LIG1        0.1655
      7 H           2.3167   -0.8373    0.0007 H       1  LIG1        0.0845
      8 O           1.4918    2.0165   -0.0003 O.3     1  LIG1       -0.4918
      9 C           2.8590    1.5971   -0.0003 C.3     1  LIG1        0.0789
     10 H           3.4958    2.4569   -0.0003 H       1  LIG1        0.0660
     11 H           3.0520    1.0102    0.8734 H       1  LIG1        0.0660
     12 H           3.0520    1.0102   -0.8739 H       1  LIG1        0.0660
     13 N          -1.4853    2.0212    0.0010 N.pl3   1  LIG1       -0.3535
     14 H          -1.0256    2.7740   -0.4702 H       1  LIG1        0.1425
     15 H          -2.3405    1.8056   -0.4703 H       1  LIG1        0.1425
     16 C          -2.3194   -0.8299   -0.0001 C.ar    1  LIG1        0.1331
     17 C          -2.7274   -2.1266   -0.0005 C.ar    1  LIG1        0.1701
     18 C          -4.1594   -2.1244    0.0011 C.ar    1  LIG1        0.0969
     19 C          -4.5635   -0.8264    0.0006 C.ar    1  LIG1        0.1160
     20 N          -3.4402   -0.0305    0.0003 N.ar    1  LIG1       -0.2379
     21 H          -3.4386    0.9635   -0.0001 H       1  LIG1        0.0194
     22 O          -1.9565   -3.1734   -0.0006 O.3     1  LIG1       -0.4910
     23 C          -2.7589   -4.3571   -0.0007 C.3     1  LIG1        0.0790
     24 H          -2.1240   -5.2184   -0.0010 H       1  LIG1        0.0660
     25 H          -3.3764   -4.3695    0.8731 H       1  LIG1        0.0660
     26 H          -3.3767   -4.3691   -0.8742 H       1  LIG1        0.0660
     27 N          -4.9336   -3.1687    0.0023 N.pl3   1  LIG1       -0.3534
     28 H          -5.7883   -2.9506   -0.4688 H       1  LIG1        0.1425
     29 H          -4.4765   -3.9231   -0.4688 H       1  LIG1        0.1425
     30 C          -5.7587   -0.3150    0.0014 C.ar    1  LIG1        0.1165
     31 C          -6.1626    0.9830    0.0016 C.ar    1  LIG1        0.2267
     32 C          -7.5946    0.9853    0.0038 C.ar    1  LIG1        0.0998
     33 C          -8.0028   -0.3114    0.0030 C.ar    1  LIG1        0.0918
     34 N          -6.8820   -1.1108    0.0021 N.ar    1  LIG1       -0.3471
     35 H          -6.8836   -2.1048    0.0013 H       1  LIG1        0.1662
     36 O          -5.3884    2.0274    0.0015 O.3     1  LIG1       -0.2836
     37 C          -4.0213    1.6080    0.0014 C.3     2  LIG2       -0.0776
     38 H          -3.3844    2.4678    0.0012 H       1  LIG1        0.0194
     39 H          -3.8281    1.0213    0.8752 H       1  LIG1        0.0194
     40 H          -3.8283    1.0210   -0.8721 H       1  LIG1        0.0194
     41 N          -8.3655    2.0321    0.0056 N.pl3   1  LIG1       -0.3533
     42 H          -7.9061    2.7852   -0.4653 H       1  LIG1        0.1425
     43 H          -9.2210    1.8169   -0.4654 H       1  LIG1        0.1425
     44 C          -9.1996   -0.8190    0.0041 C.ar    1  LIG1        0.1089
     45 C          -9.6076   -2.1157    0.0044 C.ar    1  LIG1        0.1673
     46 C         -11.0396   -2.1135    0.0069 C.ar    1  LIG1        0.0851
     47 C         -11.4437   -0.8155    0.0063 C.ar    1  LIG1        0.0267
     48 N         -10.3204   -0.0196    0.0051 N.ar    1  LIG1       -0.3549
     49 H         -10.3188    0.9744    0.0043 H       1  LIG1        0.1655
     50 H         -12.6389   -0.3041    0.0077 H       1  LIG1        0.0827
     51 O          -8.8367   -3.1625    0.0040 O.3     1  LIG1       -0.4911
     52 C          -9.6391   -4.3462    0.0038 C.3     1  LIG1        0.0790
     53 H          -9.0042   -5.2075    0.0034 H       1  LIG1        0.0660
     54 H         -10.2566   -4.3587    0.8777 H       1  LIG1        0.0660
     55 H         -10.2570   -4.3581   -0.8696 H       1  LIG1        0.0660
     56 N         -11.8139   -3.1578    0.0089 N.pl3   1  LIG1       -0.3540
     57 H         -12.6687   -2.9399   -0.4620 H       1  LIG1        0.1425
     58 H         -11.3569   -3.9124   -0.4620 H       1  LIG1        0.1425
@<TRIPOS>BOND
     1    26    23    1
     2    12     9    1
     3    40    37    1
     4    55    52    1
     5    15    13    1
     6    14    13    1
     7    29    27    1
     8    28    27    1
     9    43    41    1
    10    42    41    1
    11    58    56    1
    12    57    56    1
    13    24    23    1
    14    23    22    1
    15    23    25    1
    16    22    17    1
    17     2     8    1
    18     2     1   ar
    19     2     3   ar
    20    17    16   ar
    21    17    18   ar
    22     4    16    1
    23     4     5   ar
    24     4     3   ar
    25     6     5    1
    26    10     9    1
    27     9     8    1
    28     9    11    1
    29    21    37    1
    30    16    20   ar
    31     5     1   ar
    32     1     7    1
    33     3    13    1
    34    20    19   ar
    35    19    18   ar
    36    19    30    1
    37    18    27    1
    38    38    37    1
    39    35    34    1
    40    37    39    1
    41    30    31   ar
    42    30    34   ar
    43    36    31    1
    44    31    32   ar
    45    34    33   ar
    46    33    32   ar
    47    33    44    1
    48    53    52    1
    49    32    41    1
    50    52    51    1
    51    52    54    1
    52    51    45    1
    53    44    45   ar
    54    44    48   ar
    55    49    48    1
    56    45    46   ar
    57    48    47   ar
    58    47    46   ar
    59    47    50    1
    60    46    56    1
