@<TRIPOS>MOLECULE
mol_data/noopt/geoms/mol2/13lh13ae(170)6if(20)12el(30).out
 52 55 0 0 0
SMALL
GASTEIGER

@<TRIPOS>ATOM
      1 C           1.1215   -0.3259    0.0002 C.ar    1  LIG1        0.0463
      2 C           0.7176    0.9721   -0.0005 C.ar    1  LIG1        0.1585
      3 C          -0.7144    0.9744    0.0003 C.ar    1  LIG1        0.0939
      4 C          -1.1226   -0.3223   -0.0003 C.ar    1  LIG1        0.0875
      5 N          -0.0018   -1.1217    0.0001 N.ar    1  LIG1       -0.3550
      6 H          -0.0034   -2.1157   -0.0003 H       1  LIG1        0.1655
      7 H           2.3167   -0.8373    0.0007 H       1  LIG1        0.0845
      8 O           1.4918    2.0165   -0.0003 O.3     1  LIG1       -0.4918
      9 C           2.8590    1.5971   -0.0003 C.3     1  LIG1        0.0789
     10 H           3.4958    2.4569   -0.0003 H       1  LIG1        0.0660
     11 H           3.0520    1.0102    0.8734 H       1  LIG1        0.0660
     12 H           3.0520    1.0102   -0.8739 H       1  LIG1        0.0660
     13 N          -1.4853    2.0212    0.0010 N.pl3   1  LIG1       -0.3535
     14 H          -1.0256    2.7740   -0.4702 H       1  LIG1        0.1425
     15 H          -2.3405    1.8056   -0.4703 H       1  LIG1        0.1425
     16 C          -2.3194   -0.8299   -0.0001 C.ar    1  LIG1        0.0664
     17 C          -2.7327   -2.1142    0.1662 C.ar    1  LIG1       -0.0189
     18 C          -4.1617   -2.1189    0.0751 C.ar    1  LIG1        0.0506
     19 C          -4.5591   -0.8369   -0.1410 C.ar    1  LIG1        0.0644
     20 N          -3.4343   -0.0445   -0.1882 N.ar    1  LIG1       -0.3519
     21 H          -3.4282    0.9386   -0.3343 H       1  LIG1        0.1660
     22 H          -1.9681   -3.1460    0.3687 H       1  LIG1        0.0652
     23 C          -4.9392   -3.1555    0.1798 C.1     1  LIG1       -0.0675
     24 C          -5.6575   -4.1134    0.2766 C.1     1  LIG1       -0.1138
     25 H          -6.2974   -4.9666    0.3627 H       1  LIG1        0.1232
     26 C          -6.7983   -1.1336   -0.7860 C.ar    1  LIG1        0.0484
     27 C          -5.7495   -0.3368   -0.2917 C.ar    1  LIG1        0.0240
     28 C          -6.0187    0.9947    0.0306 C.ar    1  LIG1       -0.0071
     29 C          -7.3146    1.4811   -0.1502 C.ar    1  LIG1        0.1464
     30 C          -8.2964    0.6064   -0.6508 C.ar    1  LIG1        0.1488
     31 N          -8.0542   -0.6808   -0.9666 N.ar    1  LIG1       -0.2444
     32 H          -5.2243    1.6480    0.4185 H       1  LIG1        0.0662
     33 C          -6.5970   -2.3793   -1.1000 C.3     1  LIG1       -0.0217
     34 H          -5.6599   -2.7018   -0.6966 H       1  LIG1        0.0293
     35 H          -6.5806   -2.4805   -2.1651 H       1  LIG1        0.0293
     36 H          -7.3848   -2.9806   -0.6966 H       1  LIG1        0.0293
     37 O          -7.6158    2.7132    0.1348 O.3     1  LIG1       -0.5045
     38 H          -8.5691    2.8019    0.2051 H       1  LIG1        0.2922
     39 C          -9.5173    1.0126   -0.8363 C.ar    1  LIG1        0.1755
     40 C         -10.2275    2.1586   -0.5445 C.ar    1  LIG1        0.1136
     41 C         -11.5729    1.9497   -1.0374 C.ar    1  LIG1        0.1736
     42 C         -11.5957    0.6892   -1.5980 C.ar    1  LIG1        0.1354
     43 O         -10.3398    0.0915   -1.4864 O.2     1  LIG1       -0.4562
     44 H         -12.4908   -0.0461   -2.1879 H       1  LIG1        0.1068
     45 C          -9.7983    3.2298    0.0542 C.1     1  LIG1       -0.0621
     46 C          -9.4018    4.2196    0.6074 C.1     1  LIG1       -0.1137
     47 H          -9.0486    5.1013    1.1001 H       1  LIG1        0.1232
     48 O         -12.5511    2.8020   -0.9545 O.3     1  LIG1       -0.4907
     49 C         -12.0247    4.1312   -0.9241 C.3     1  LIG1        0.0790
     50 H         -12.8300    4.8324   -0.8561 H       1  LIG1        0.0660
     51 H         -11.3831    4.2415   -0.0749 H       1  LIG1        0.0660
     52 H         -11.4669    4.3145   -1.8186 H       1  LIG1        0.0660
@<TRIPOS>BOND
     1    44    42    1
     2    35    33    1
     3    52    49    1
     4    42    43   ar
     5    42    41   ar
     6    43    39   ar
     7    33    26    1
     8    33    36    1
     9    33    34    1
    10    41    48    1
    11    41    40   ar
    12    31    26   ar
    13    31    30   ar
    14    48    49    1
    15    49    50    1
    16    49    51    1
    17    12     9    1
    18    39    30    1
    19    39    40   ar
    20    26    27   ar
    21    30    29   ar
    22    40    45    1
    23    15    13    1
    24    14    13    1
    25    21    20    1
    26    27    19    1
    27    27    28   ar
    28    20    19   ar
    29    20    16   ar
    30    29    28   ar
    31    29    37    1
    32    19    18   ar
    33     2     8    1
    34     2     1   ar
    35     2     3   ar
    36     4    16    1
    37     4     5   ar
    38     4     3   ar
    39     9    10    1
    40     9     8    1
    41     9    11    1
    42     6     5    1
    43    16    17   ar
    44     5     1   ar
    45     1     7    1
    46     3    13    1
    47    28    32    1
    48    45    46    3
    49    18    17   ar
    50    18    23    1
    51    37    38    1
    52    17    22    1
    53    23    24    3
    54    24    25    1
    55    46    47    1
