@<TRIPOS>MOLECULE
mol_data/noopt/geoms/mol2/13lh6ff(240)6hd(110)13af(320).out
 48 51 0 0 0
SMALL
GASTEIGER

@<TRIPOS>ATOM
      1 C           1.1215   -0.3259    0.0002 C.ar    1  LIG1        0.0463
      2 C           0.7176    0.9721   -0.0005 C.ar    1  LIG1        0.1585
      3 C          -0.7144    0.9744    0.0003 C.ar    1  LIG1        0.0926
      4 C          -1.1226   -0.3223   -0.0003 C.ar    1  LIG1        0.0763
      5 N          -0.0018   -1.1217    0.0001 N.ar    1  LIG1       -0.3560
      6 H          -0.0034   -2.1157   -0.0003 H       1  LIG1        0.1655
      7 H           2.3167   -0.8373    0.0007 H       1  LIG1        0.0845
      8 O           1.4918    2.0165   -0.0003 O.3     1  LIG1       -0.4918
      9 C           2.8590    1.5971   -0.0003 C.3     1  LIG1        0.0789
     10 H           3.4958    2.4569   -0.0003 H       1  LIG1        0.0660
     11 H           3.0520    1.0102    0.8734 H       1  LIG1        0.0660
     12 H           3.0520    1.0102   -0.8739 H       1  LIG1        0.0660
     13 N          -1.4853    2.0212    0.0010 N.pl3   1  LIG1       -0.3535
     14 H          -1.0256    2.7740   -0.4702 H       1  LIG1        0.1425
     15 H          -2.3405    1.8056   -0.4703 H       1  LIG1        0.1425
     16 C          -3.2112   -0.5482    1.0510 C.ar    1  LIG1        0.2225
     17 C          -2.3194   -0.8299   -0.0001 C.ar    1  LIG1        0.0650
     18 C          -2.7502   -1.6621   -1.0350 C.ar    1  LIG1       -0.0038
     19 C          -4.0454   -2.1804   -0.9855 C.ar    1  LIG1        0.1437
     20 C          -4.8632   -1.8410    0.1079 C.ar    1  LIG1        0.1194
     21 N          -4.4639   -1.0396    1.1146 N.ar    1  LIG1       -0.2087
     22 H          -2.0812   -1.9055   -1.8725 H       1  LIG1        0.0663
     23 O          -2.8562    0.2213    2.0369 O.3     1  LIG1       -0.4919
     24 H          -3.5904    0.7900    2.2799 H       1  LIG1        0.2937
     25 O          -4.4936   -2.9599   -1.9244 O.3     1  LIG1       -0.5046
     26 H          -3.8195   -3.6031   -2.1558 H       1  LIG1        0.2922
     27 C          -6.9615   -2.1883   -0.8896 C.ar    1  LIG1        0.1263
     28 C          -6.0766   -2.2986    0.1986 C.ar    1  LIG1        0.0448
     29 C          -6.5322   -2.9078    1.3693 C.ar    1  LIG1       -0.0296
     30 C          -7.8444   -3.3819    1.4133 C.ar    1  LIG1        0.0799
     31 C          -8.6537   -3.2250    0.2731 C.ar    1  LIG1        0.1066
     32 N          -8.2304   -2.6401   -0.8645 N.ar    1  LIG1       -0.2290
     33 H          -5.8700   -3.0110    2.2405 H       1  LIG1        0.0639
     34 N          -6.5836   -1.6292   -2.0007 N.pl3   1  LIG1       -0.3426
     35 H          -6.0358   -2.2769   -2.5303 H       1  LIG1        0.1437
     36 H          -7.3888   -1.3625   -2.5304 H       1  LIG1        0.1437
     37 N          -8.7319   -4.4631    3.4205 N.1     1  LIG1       -0.1908
     38 C          -8.3160   -3.9564    2.4798 C.1     1  LIG1        0.1014
     39 C          -9.8822   -3.6502    0.2653 C.ar    1  LIG1        0.0698
     40 C         -10.9798   -3.1638   -0.3724 C.ar    1  LIG1        0.0067
     41 C         -12.0817   -4.0143   -0.0362 C.ar    1  LIG1        0.1347
     42 C         -11.6086   -4.9841    0.7907 C.ar    1  LIG1        0.0442
     43 N         -10.2626   -4.7646    0.9783 N.ar    1  LIG1       -0.3564
     44 H          -9.6608   -5.3227    1.5390 H       1  LIG1        0.1655
     45 H         -12.2204   -5.9807    1.3587 H       1  LIG1        0.0844
     46 H         -11.0184   -2.1178   -1.1434 H       1  LIG1        0.0676
     47 O         -13.3092   -3.8862   -0.4448 O.3     1  LIG1       -0.5053
     48 H         -13.7056   -4.7548   -0.5455 H       1  LIG1        0.2922
@<TRIPOS>BOND
     1    36    34    1
     2    35    34    1
     3    26    25    1
     4    34    27    1
     5    25    19    1
     6    22    18    1
     7    46    40    1
     8    18    19   ar
     9    18    17   ar
    10    19    20   ar
    11    27    32   ar
    12    27    28   ar
    13    12     9    1
    14    32    31   ar
    15    48    47    1
    16    15    13    1
    17    14    13    1
    18    47    41    1
    19    40    41   ar
    20    40    39   ar
    21    41    42   ar
    22     2     8    1
    23     2     1   ar
    24     2     3   ar
    25    10     9    1
    26     4    17    1
    27     4     5   ar
    28     4     3   ar
    29     9     8    1
    30     9    11    1
    31     6     5    1
    32    17    16   ar
    33     5     1   ar
    34     1     7    1
    35     3    13    1
    36    20    28    1
    37    20    21   ar
    38    28    29   ar
    39    39    31    1
    40    39    43   ar
    41    31    30   ar
    42    42    43   ar
    43    42    45    1
    44    43    44    1
    45    16    21   ar
    46    16    23    1
    47    29    30   ar
    48    29    33    1
    49    30    38    1
    50    23    24    1
    51    38    37    3
