@<TRIPOS>MOLECULE
mol_data/noopt/geoms/mol2/13lh12ii(110)13ie(260)6ih(40).out
 56 59 0 0 0
SMALL
GASTEIGER

@<TRIPOS>ATOM
      1 C           1.1215   -0.3259    0.0002 C.ar    1  LIG1        0.0463
      2 C           0.7176    0.9721   -0.0005 C.ar    1  LIG1        0.1586
      3 C          -0.7144    0.9744    0.0003 C.ar    1  LIG1        0.0955
      4 C          -1.1226   -0.3223   -0.0003 C.ar    1  LIG1        0.1070
      5 N          -0.0018   -1.1217    0.0001 N.ar    1  LIG1       -0.3537
      6 H          -0.0034   -2.1157   -0.0003 H       1  LIG1        0.1656
      7 H           2.3167   -0.8373    0.0007 H       1  LIG1        0.0845
      8 O           1.4918    2.0165   -0.0003 O.3     1  LIG1       -0.4918
      9 C           2.8590    1.5971   -0.0003 C.3     1  LIG1        0.0789
     10 H           3.4958    2.4569   -0.0003 H       1  LIG1        0.0660
     11 H           3.0520    1.0102    0.8734 H       1  LIG1        0.0660
     12 H           3.0520    1.0102   -0.8739 H       1  LIG1        0.0660
     13 N          -1.4853    2.0212    0.0010 N.pl3   1  LIG1       -0.3534
     14 H          -1.0256    2.7740   -0.4702 H       1  LIG1        0.1425
     15 H          -2.3405    1.8056   -0.4703 H       1  LIG1        0.1425
     16 C          -2.3194   -0.8299   -0.0001 C.ar    1  LIG1        0.1569
     17 C          -3.0796   -1.5556    0.8935 C.ar    1  LIG1        0.0004
     18 C          -4.3523   -1.8044    0.2490 C.ar    1  LIG1        0.0003
     19 C          -4.2853   -1.2139   -0.9962 C.ar    1  LIG1        0.1553
     20 O          -3.0417   -0.6065   -1.1732 O.2     1  LIG1       -0.4513
     21 C          -2.7444   -1.9516    2.0858 C.3     1  LIG1       -0.0358
     22 H          -2.2845   -1.1427    2.6141 H       1  LIG1        0.0279
     23 H          -2.0547   -2.7662    2.0102 H       1  LIG1        0.0279
     24 H          -3.6181   -2.2718    2.6140 H       1  LIG1        0.0279
     25 C          -5.3485   -2.4605    0.7667 C.3     1  LIG1       -0.0358
     26 H          -4.9735   -3.2596    1.3714 H       1  LIG1        0.0279
     27 H          -5.9572   -2.8614   -0.0167 H       1  LIG1        0.0279
     28 H          -5.9345   -1.8003    1.3713 H       1  LIG1        0.0279
     29 C          -5.0900   -1.0973   -2.0106 C.ar    1  LIG1        0.0870
     30 C          -4.8794   -1.3251   -3.3341 C.ar    1  LIG1       -0.0062
     31 C          -6.1050   -1.0395   -4.0175 C.ar    1  LIG1        0.0535
     32 C          -7.0111   -0.6513   -3.0813 C.ar    1  LIG1        0.0646
     33 N          -6.3937   -0.6849   -1.8513 N.ar    1  LIG1       -0.3505
     34 H          -6.8216   -0.4494   -0.9856 H       1  LIG1        0.1660
     35 C          -3.7679   -1.7269   -3.8762 C.3     1  LIG1       -0.0364
     36 H          -2.9682   -1.0869   -3.5664 H       1  LIG1        0.0279
     37 H          -3.8585   -1.6940   -4.9419 H       1  LIG1        0.0279
     38 H          -3.5622   -2.7302   -3.5664 H       1  LIG1        0.0279
     39 C          -6.3161   -1.1332   -5.2968 C.1     1  LIG1       -0.0673
     40 C          -6.5113   -1.2199   -6.4789 C.1     1  LIG1       -0.1138
     41 H          -6.6851   -1.2971   -7.5318 H       1  LIG1        0.1232
     42 C          -9.1190   -1.0109   -4.0538 C.ar    1  LIG1        0.0474
     43 C          -8.2540   -0.2923   -3.2083 C.ar    1  LIG1        0.0223
     44 C          -8.7616    0.8077   -2.5144 C.ar    1  LIG1       -0.0287
     45 C         -10.1039    1.1499   -2.6869 C.ar    1  LIG1        0.0435
     46 C         -10.8897    0.3697   -3.5549 C.ar    1  LIG1        0.0485
     47 N         -10.4163   -0.6947   -4.2320 N.ar    1  LIG1       -0.2577
     48 H          -8.1157    1.3939   -1.8455 H       1  LIG1        0.0643
     49 H         -12.1446    0.6486   -3.7483 H       1  LIG1        0.0848
     50 C          -8.6928   -2.0425   -4.7208 C.3     1  LIG1       -0.0217
     51 H          -7.6697   -2.2311   -4.4708 H       1  LIG1        0.0293
     52 H          -8.7735   -1.8472   -5.7698 H       1  LIG1        0.0293
     53 H          -9.2847   -2.8981   -4.4708 H       1  LIG1        0.0293
     54 N         -10.6240    2.1653   -2.0636 N.pl3   1  LIG1       -0.3568
     55 H         -10.1337    2.9990   -2.3175 H       1  LIG1        0.1424
     56 H         -11.5871    2.2546   -2.3175 H       1  LIG1        0.1424
@<TRIPOS>BOND
     1    41    40    1
     2    40    39    3
     3    52    50    1
     4    39    31    1
     5    37    35    1
     6    50    53    1
     7    50    51    1
     8    50    42    1
     9    47    42   ar
    10    47    46   ar
    11    42    43   ar
    12    31    30   ar
    13    31    32   ar
    14    35    38    1
    15    35    36    1
    16    35    30    1
    17    49    46    1
    18    46    45   ar
    19    30    29   ar
    20    43    32    1
    21    43    44   ar
    22    32    33   ar
    23    45    44   ar
    24    45    54    1
    25    44    48    1
    26    56    54    1
    27    55    54    1
    28    29    33   ar
    29    29    19    1
    30    33    34    1
    31    20    19   ar
    32    20    16   ar
    33    19    18   ar
    34    12     9    1
    35    15    13    1
    36    14    13    1
    37    27    25    1
    38     2     8    1
    39     2     1   ar
    40     2     3   ar
    41     4    16    1
    42     4     5   ar
    43     4     3   ar
    44     6     5    1
    45     8     9    1
    46     9    10    1
    47     9    11    1
    48    16    17   ar
    49     5     1   ar
    50     1     7    1
    51     3    13    1
    52    18    25    1
    53    18    17   ar
    54    25    28    1
    55    25    26    1
    56    17    21    1
    57    23    21    1
    58    21    24    1
    59    21    22    1
