@<TRIPOS>MOLECULE
mol_data/noopt/geoms/mol2/13li13li.out
 32 30 0 0 0
SMALL
GASTEIGER

@<TRIPOS>ATOM
      1 C           1.1215   -0.3259    0.0002 C.ar    1  LIG1        0.0450
      2 C           0.7176    0.9721   -0.0005 C.ar    1  LIG1        0.1458
      3 C          -0.7144    0.9744    0.0003 C.ar    1  LIG1        0.0562
      4 C          -1.1226   -0.3223   -0.0003 C.ar    1  LIG1        0.0783
      5 N          -0.0018   -1.1217    0.0001 N.ar    1  LIG1       -0.3559
      6 H          -0.0034   -2.1157   -0.0003 H       1  LIG1        0.1655
      7 H           2.3167   -0.8373    0.0007 H       1  LIG1        0.0844
      8 O           1.4918    2.0165   -0.0003 O.3     1  LIG1       -0.4930
      9 C           2.8590    1.5971   -0.0003 C.3     1  LIG1        0.0789
     10 H           3.4958    2.4569   -0.0003 H       1  LIG1        0.0660
     11 H           3.0520    1.0102    0.8734 H       1  LIG1        0.0660
     12 H           3.0520    1.0102   -0.8739 H       1  LIG1        0.0660
     13 C          -1.4855    2.0214    0.0010 C.3     1  LIG1       -0.0382
     14 H          -2.4003    1.7904    0.5056 H       2  UNK2        0.0000
     15 H          -1.6974    2.3090   -1.0077 H       3  UNK3        0.0000
     16 H          -0.9933    2.8265    0.5056 H       1  LIG1        0.0303
     17 C          -2.3194   -0.8299   -0.0001 C.ar    1  LIG1        0.1111
     18 C          -3.5353   -0.2219   -0.0003 C.ar    1  LIG1        0.2083
     19 C          -4.5290   -1.2530    0.0012 C.ar    1  LIG1        0.0142
     20 C          -3.8767   -2.4457    0.0005 C.ar    1  LIG1        0.0089
     21 N          -2.5238   -2.1913    0.0002 N.ar    1  LIG1       -0.3562
     22 H          -1.8081   -2.8811   -0.0004 H       1  LIG1        0.1655
     23 H          -4.3398   -3.6604    0.0012 H       1  LIG1        0.0811
     24 O          -3.7520    1.0599   -0.0003 O.3     1  LIG1       -0.2853
     25 C          -2.5024    1.7552   -0.0003 C.3     1  LIG1       -0.0619
     26 H          -2.6813    2.8102   -0.0005 H       1  LIG1        0.0233
     27 H          -1.9455    1.4880    0.8734 H       1  LIG1        0.0233
     28 H          -1.9455    1.4878   -0.8739 H       1  LIG1        0.0233
     29 C          -5.8182   -1.0837    0.0025 C.3     1  LIG1       -0.0346
     30 H          -6.2852   -1.9035    0.5073 H       1  LIG1        0.0279
     31 H          -6.1729   -1.0372   -1.0060 H       1  LIG1        0.0279
     32 H          -6.0576   -0.1710    0.5072 H       1  LIG1        0.0279
@<TRIPOS>BOND
     1    31    29    1
     2    28    25    1
     3    12     9    1
     4     2     8    1
     5     2     1   ar
     6     2     3   ar
     7    26    25    1
     8    22    21    1
     9    25    13    1
    10    25    27    1
    11    18    24    1
    12    18    17   ar
    13    18    19   ar
    14    10     9    1
    15     9     8    1
    16     9    11    1
    17     6     5    1
    18     4    17    1
    19     4     5   ar
    20     4     3   ar
    21    17    21   ar
    22     5     1   ar
    23    21    20   ar
    24     1     7    1
    25    20    19   ar
    26    20    23    1
    27    13    16    1
    28    19    29    1
    29    29    32    1
    30    29    30    1
