@<TRIPOS>MOLECULE
mol_data/noopt/geoms/mol2/13li12fe(350)6fe(330)4ae.out
 51 54 0 0 0
SMALL
GASTEIGER

@<TRIPOS>ATOM
      1 C           1.1215   -0.3259    0.0002 C.ar    1  LIG1        0.0447
      2 C           0.7176    0.9721   -0.0005 C.ar    1  LIG1        0.1409
      3 C          -0.7144    0.9744    0.0003 C.ar    1  LIG1        0.0196
      4 C          -1.1226   -0.3223   -0.0003 C.ar    1  LIG1        0.0923
      5 N          -0.0018   -1.1217    0.0001 N.ar    1  LIG1       -0.3549
      6 H          -0.0034   -2.1157   -0.0003 H       1  LIG1        0.1655
      7 H           2.3167   -0.8373    0.0007 H       1  LIG1        0.0844
      8 O           1.4918    2.0165   -0.0003 O.3     1  LIG1       -0.4933
      9 C           2.8590    1.5971   -0.0003 C.3     1  LIG1        0.0789
     10 H           3.4958    2.4569   -0.0003 H       1  LIG1        0.0660
     11 H           3.0520    1.0102    0.8734 H       1  LIG1        0.0660
     12 H           3.0520    1.0102   -0.8739 H       1  LIG1        0.0660
     13 C          -1.4855    2.0214    0.0010 C.3     1  LIG1       -0.0341
     14 H          -2.4003    1.7904    0.5056 H       1  LIG1        0.0279
     15 H          -1.6974    2.3090   -1.0077 H       1  LIG1        0.0279
     16 H          -0.9933    2.8265    0.5056 H       1  LIG1        0.0279
     17 C          -2.3194   -0.8299   -0.0001 C.ar    1  LIG1        0.1945
     18 C          -3.5981   -0.3337   -0.1476 C.ar    1  LIG1        0.1805
     19 C          -4.4966   -1.4642   -0.0409 C.ar    1  LIG1        0.1126
     20 C          -3.7071   -2.5768    0.1648 C.ar    1  LIG1        0.1599
     21 O          -2.3608   -2.2113    0.1937 O.2     1  LIG1       -0.4481
     22 O          -3.9546    0.9009   -0.3446 O.3     1  LIG1       -0.5023
     23 H          -4.9119    0.9541   -0.3932 H       1  LIG1        0.2923
     24 C          -5.7928   -1.4125   -0.1262 C.1     1  LIG1       -0.0622
     25 C          -6.9905   -1.3647   -0.2051 C.1     1  LIG1       -0.1137
     26 H          -8.0573   -1.3221   -0.2753 H       1  LIG1        0.1232
     27 C          -2.9915   -4.6419    1.0260 C.ar    1  LIG1        0.2239
     28 C          -3.9231   -3.8477    0.3326 C.ar    1  LIG1        0.0811
     29 C          -5.0767   -4.4554   -0.1664 C.ar    1  LIG1       -0.0284
     30 C          -5.2593   -5.8235    0.0420 C.ar    1  LIG1        0.0515
     31 C          -4.2704   -6.5332    0.7477 C.ar    1  LIG1        0.0902
     32 N          -3.1517   -5.9629    1.2361 N.ar    1  LIG1       -0.2112
     33 H          -5.8266   -3.8673   -0.7141 H       1  LIG1        0.0639
     34 O          -1.9025   -4.1217    1.5093 O.3     1  LIG1       -0.4919
     35 H          -2.0241   -3.1769    1.6284 H       1  LIG1        0.2938
     36 C          -6.3162   -6.4359   -0.4029 C.1     1  LIG1       -0.0675
     37 C          -7.2928   -7.0017   -0.8139 C.1     1  LIG1       -0.1138
     38 H          -8.1628   -7.5057   -1.1800 H       1  LIG1        0.1232
     39 C          -5.6793   -8.3783    1.0862 C.ar    1  LIG1       -0.0525
     40 C          -5.7610   -9.7638    1.3251 C.ar    1  LIG1       -0.0600
     41 C          -4.3952   -7.8084    0.9670 C.ar    1  LIG1        0.0028
     42 C          -4.6162  -10.5492    1.4399 C.ar    1  LIG1       -0.0463
     43 H          -6.7420  -10.2239    1.4207 H       1  LIG1        0.0618
     44 C          -3.2520   -8.5921    1.0815 C.ar    1  LIG1       -0.0371
     45 C          -3.3540   -9.9668    1.3185 C.ar    1  LIG1        0.0253
     46 H          -2.2732   -8.1291    0.9858 H       1  LIG1        0.0636
     47 H          -4.7285  -11.8254    1.6605 H       1  LIG1        0.0630
     48 H          -6.7828   -7.6981    0.9884 H       1  LIG1        0.0624
     49 C          -2.2818  -10.6943    1.4248 C.1     1  LIG1       -0.0696
     50 C          -1.2912  -11.3665    1.5231 C.1     1  LIG1       -0.1139
     51 H          -0.4087  -11.9652    1.6106 H       1  LIG1        0.1232
@<TRIPOS>BOND
     1    38    37    1
     2    15    13    1
     3    12     9    1
     4    37    36    3
     5    33    29    1
     6    36    30    1
     7    23    22    1
     8    22    18    1
     9    26    25    1
    10    25    24    3
    11    29    30   ar
    12    29    28   ar
    13    18    19   ar
    14    18    17   ar
    15    24    19    1
    16    19    20   ar
    17     2     8    1
    18     2     1   ar
    19     2     3   ar
    20     8     9    1
    21     9    10    1
    22     9    11    1
    23     6     5    1
    24     4    17    1
    25     4     5   ar
    26     4     3   ar
    27    17    21   ar
    28     5     1   ar
    29     1     7    1
    30     3    13    1
    31    13    16    1
    32    13    14    1
    33    30    31   ar
    34    20    21   ar
    35    20    28    1
    36    28    27   ar
    37    31    41    1
    38    31    32   ar
    39    41    44   ar
    40    41    39   ar
    41    46    44    1
    42    48    39    1
    43    27    32   ar
    44    27    34    1
    45    44    45   ar
    46    39    40   ar
    47    45    49    1
    48    45    42   ar
    49    40    43    1
    50    40    42   ar
    51    49    50    3
    52    42    47    1
    53    34    35    1
    54    50    51    1
