@<TRIPOS>MOLECULE
mol_data/noopt/geoms/mol2/13li13li13li.out
 47 43 0 0 0
SMALL
GASTEIGER

@<TRIPOS>ATOM
      1 C           1.1215   -0.3259    0.0002 C.ar    1  LIG1        0.0450
      2 C           0.7176    0.9721   -0.0005 C.ar    1  LIG1        0.1458
      3 C          -0.7144    0.9744    0.0003 C.ar    1  LIG1        0.0562
      4 C          -1.1226   -0.3223   -0.0003 C.ar    1  LIG1        0.0783
      5 N          -0.0018   -1.1217    0.0001 N.ar    1  LIG1       -0.3559
      6 H          -0.0034   -2.1157   -0.0003 H       1  LIG1        0.1655
      7 H           2.3167   -0.8373    0.0007 H       1  LIG1        0.0844
      8 O           1.4918    2.0165   -0.0003 O.3     1  LIG1       -0.4930
      9 C           2.8590    1.5971   -0.0003 C.3     1  LIG1        0.0789
     10 H           3.4958    2.4569   -0.0003 H       1  LIG1        0.0660
     11 H           3.0520    1.0102    0.8734 H       1  LIG1        0.0660
     12 H           3.0520    1.0102   -0.8739 H       1  LIG1        0.0660
     13 C          -1.4855    2.0214    0.0010 C.3     1  LIG1       -0.0382
     14 H          -2.4003    1.7904    0.5056 H       2  UNK2        0.0000
     15 H          -1.6974    2.3090   -1.0077 H       3  UNK3        0.0000
     16 H          -0.9933    2.8265    0.5056 H       1  LIG1        0.0303
     17 C          -2.3194   -0.8299   -0.0001 C.ar    1  LIG1        0.1120
     18 C          -3.5353   -0.2219   -0.0003 C.ar    1  LIG1        0.2140
     19 C          -4.5290   -1.2530    0.0012 C.ar    1  LIG1        0.0621
     20 C          -3.8767   -2.4457    0.0005 C.ar    1  LIG1        0.0789
     21 N          -2.5238   -2.1913    0.0002 N.ar    1  LIG1       -0.3482
     22 H          -1.8081   -2.8811   -0.0004 H       1  LIG1        0.1661
     23 O          -3.7520    1.0599   -0.0003 O.3     1  LIG1       -0.2849
     24 C          -2.5024    1.7552   -0.0003 C.3     1  LIG1       -0.0619
     25 H          -2.6813    2.8102   -0.0005 H       1  LIG1        0.0233
     26 H          -1.9455    1.4880    0.8734 H       1  LIG1        0.0233
     27 H          -1.9455    1.4878   -0.8739 H       1  LIG1        0.0233
     28 C          -5.8182   -1.0837    0.0025 C.3     2  UNK2       -0.0382
     29 H          -6.2852   -1.9035    0.5073 H       4  UNK4        0.0000
     30 H          -6.1729   -1.0372   -1.0060 H       5  UNK5        0.0000
     31 H          -6.0576   -0.1710    0.5072 H       2  UNK2        0.0303
     32 C          -4.3398   -3.6604    0.0012 C.ar    1  LIG1        0.1111
     33 C          -5.6206   -4.1160    0.0013 C.ar    1  LIG1        0.2083
     34 C          -5.5655   -5.5470    0.0033 C.ar    1  LIG1        0.0142
     35 C          -4.2535   -5.9029    0.0026 C.ar    1  LIG1        0.0089
     36 N          -3.4996   -4.7510    0.0018 N.ar    1  LIG1       -0.3562
     37 H          -2.5064   -4.7127    0.0010 H       1  LIG1        0.1655
     38 H          -3.6983   -7.0784    0.0036 H       1  LIG1        0.0811
     39 O          -6.6951   -3.3843    0.0012 O.3     1  LIG1       -0.2853
     40 C          -6.3308   -2.0014    0.0011 C.3     2  UNK2       -0.0619
     41 H          -7.2155   -1.3995    0.0009 H       2  UNK2        0.0233
     42 H          -5.7524   -1.7849    0.8749 H       2  UNK2        0.0233
     43 H          -5.7521   -1.7851   -0.8724 H       2  UNK2        0.0233
     44 C          -6.5808   -6.3594    0.0050 C.3     1  LIG1       -0.0346
     45 H          -6.3129   -7.2640    0.5099 H       1  LIG1        0.0279
     46 H          -6.8603   -6.5831   -1.0034 H       1  LIG1        0.0279
     47 H          -7.4046   -5.8996    0.5099 H       1  LIG1        0.0279
@<TRIPOS>BOND
     1    46    44    1
     2    27    24    1
     3    12     9    1
     4    43    40    1
     5     2     8    1
     6     2     1   ar
     7     2     3   ar
     8    25    24    1
     9    22    21    1
    10    24    13    1
    11    24    26    1
    12    18    23    1
    13    18    17   ar
    14    18    19   ar
    15    10     9    1
    16     9     8    1
    17     9    11    1
    18     6     5    1
    19     4    17    1
    20     4     5   ar
    21     4     3   ar
    22    17    21   ar
    23     5     1   ar
    24    21    20   ar
    25     1     7    1
    26    20    19   ar
    27    20    32    1
    28    41    40    1
    29    37    36    1
    30    13    16    1
    31    40    28    1
    32    40    42    1
    33    32    33   ar
    34    32    36   ar
    35    39    33    1
    36    33    34   ar
    37    36    35   ar
    38    28    31    1
    39    35    34   ar
    40    35    38    1
    41    34    44    1
    42    44    47    1
    43    44    45    1
