@<TRIPOS>MOLECULE
mol_data/noopt/geoms/mol2/13li4lf13el-4fa6hl12ah13hd13df-.out
 102 106 0 0 0
SMALL
GASTEIGER

@<TRIPOS>ATOM
      1 C           1.1215   -0.3259    0.0002 C.2     1  LIG1        0.0478
      2 C           0.7176    0.9721   -0.0005 C.2     1  LIG1        0.1788
      3 C          -0.7144    0.9744    0.0003 C.3     1  LIG1        0.0498
      4 C          -1.1226   -0.3223   -0.0003 C.2     1  LIG1        0.0361
      5 N          -0.0018   -1.1217    0.0001 N.2     1  LIG1       -0.3603
      6 H          -0.0034   -2.1157   -0.0003 H       1  LIG1        0.1652
      7 H           2.3167   -0.8373    0.0007 H       1  LIG1        0.0845
      8 O           1.4918    2.0165   -0.0003 O.2     1  LIG1       -0.4900
      9 C           2.8590    1.5971   -0.0003 C.3     1  LIG1        0.0790
     10 H           3.4958    2.4569   -0.0003 H       1  LIG1        0.0660
     11 H           3.0520    1.0102    0.8734 H       1  LIG1        0.0660
     12 H           3.0520    1.0102   -0.8739 H       1  LIG1        0.0660
     13 C          -1.4855    2.0214    0.0010 C.3     2  LIG2       -0.0681
     14 H          -2.4003    1.7904    0.5056 H       2  LIG2        0.0227
     15 H          -1.6974    2.3090   -1.0077 H       1  LIG1        0.0227
     16 H          -0.9933    2.8265    0.5056 H       1  LIG1        0.0227
     17 C          -3.4434    0.0212    0.0008 C.ar    1  LIG1        0.1886
     18 C          -4.7180   -0.5776    0.0025 C.ar    1  LIG1       -0.0016
     19 C          -2.3194   -0.8299   -0.0001 C.ar    1  LIG1        0.0449
     20 C          -4.8692   -1.9625    0.0027 C.ar    1  LIG1        0.0447
     21 H          -5.5988    0.0606    0.0034 H       1  LIG1        0.0664
     22 C          -2.4697   -2.2124    0.0001 C.ar    1  LIG1       -0.0070
     23 C          -3.7444   -2.7884    0.0015 C.ar    1  LIG1        0.1268
     24 H          -1.5874   -2.8474   -0.0005 H       1  LIG1        0.0662
     25 O          -3.3661    1.3190    0.0004 O.3     1  LIG1       -0.2872
     26 C          -1.9921    1.7153    0.0001 C.3     3  LIG3       -0.0681
     27 H          -1.9290    2.7835   -0.0004 H       1  LIG1        0.0227
     28 H          -1.5096    1.3299    0.8740 H       2  LIG2        0.0227
     29 H          -1.5096    1.3291   -0.8733 H       2  LIG2        0.0227
     30 O          -3.8788   -4.0814    0.0018 O.3     1  LIG1       -0.5061
     31 H          -3.0118   -4.4937    0.0019 H       1  LIG1        0.2922
     32 C          -6.0610   -2.4816    0.0042 C.ar    1  LIG1        0.0698
     33 C          -7.2827   -1.8855    0.0049 C.ar    1  LIG1        0.0922
     34 C          -8.2664   -2.9261    0.0077 C.ar    1  LIG1        0.1613
     35 C          -7.6025   -4.1125    0.0069 C.ar    1  LIG1        0.0939
     36 N          -6.2521   -3.8449    0.0052 N.ar    1  LIG1       -0.3500
     37 H          -5.5298   -4.5278    0.0042 H       1  LIG1        0.1661
     38 C          -7.5118   -0.6058    0.0046 C.1     1  LIG1       -0.0638
     39 C          -7.7236    0.5766    0.0044 C.1     1  LIG1       -0.1137
     40 H          -7.9122    1.6298    0.0042 H       1  LIG1        0.1232
     41 O          -9.5569   -2.7694    0.0101 O.3     1  LIG1       -0.4917
     42 C          -9.8682   -1.3736    0.0110 C.3     1  LIG1        0.0789
     43 H         -10.9304   -1.2450    0.0128 H       1  LIG1        0.0660
     44 H          -9.4520   -0.9159    0.8840 H       1  LIG1        0.0660
     45 H          -9.4550   -0.9155   -0.8633 H       1  LIG1        0.0660
     46 C          -9.4441   -5.5660    0.0101 C.ar    1  LIG1        0.1266
     47 C          -9.8823   -6.9044    0.0133 C.ar    1  LIG1       -0.0117
     48 C          -8.0538   -5.3316    0.0085 C.ar    1  LIG1        0.0434
     49 C          -8.9781   -7.9641    0.0143 C.ar    1  LIG1       -0.0110
     50 H         -10.9509   -7.1078    0.0148 H       1  LIG1        0.0660
     51 C          -7.1507   -6.3891    0.0095 C.ar    1  LIG1       -0.0484
     52 C          -7.6056   -7.7118    0.0123 C.ar    1  LIG1       -0.0531
     53 H          -6.0835   -6.1825    0.0083 H       1  LIG1        0.0625
     54 O         -10.3356   -4.6198    0.0091 O.3     1  LIG1       -0.5061
     55 H         -11.2140   -5.0072    0.0088 H       1  LIG1        0.2922
     56 H          -6.7567   -8.6963    0.0133 H       1  LIG1        0.0624
     57 C          -8.5154  -10.2672    0.0189 C.ar    1  LIG1        0.1250
     58 C          -9.4175   -9.1875    0.0172 C.ar    1  LIG1        0.0253
     59 C         -10.7863   -9.4624    0.0190 C.ar    1  LIG1       -0.0067
     60 C         -11.2042  -10.7943    0.0222 C.ar    1  LIG1        0.1497
     61 C         -10.2255  -11.8052    0.0235 C.ar    1  LIG1        0.1496
     62 N          -8.9011  -11.5579    0.0220 N.ar    1  LIG1       -0.2250
     63 H         -11.5211   -8.6449    0.0167 H       1  LIG1        0.0662
     64 N          -7.2317  -10.0619    0.0175 N.pl3   1  LIG1       -0.3426
     65 H          -6.7742  -10.8156   -0.4543 H       1  LIG1        0.1437
     66 H          -7.0320   -9.2031   -0.4543 H       1  LIG1        0.1437
     67 O         -12.4672  -11.1024    0.0237 O.3     1  LIG1       -0.4928
     68 C         -13.2503   -9.9059    0.0242 C.3     1  LIG1        0.0789
     69 H         -14.2897  -10.1599    0.0253 H       1  LIG1        0.0660
     70 H         -13.0227   -9.3310    0.8976 H       1  LIG1        0.0660
     71 H         -13.0245   -9.3314   -0.8497 H       1  LIG1        0.0660
     72 C         -10.5650  -13.0601    0.0266 C.ar    1  LIG1        0.1594
     73 C         -11.7557  -13.7567    0.0289 C.ar    1  LIG1        0.0072
     74 C         -11.4131  -15.1637    0.0319 C.ar    1  LIG1        0.0732
     75 C         -10.0351  -15.2334    0.0311 C.ar    1  LIG1        0.1742
     76 O          -9.4894  -13.9493    0.0277 O.2     1  LIG1       -0.4497
     77 H         -12.9616  -13.2712    0.0286 H       1  LIG1        0.0675
     78 N         -12.2602  -16.1497    0.0347 N.pl3   1  LIG1       -0.3550
     79 H         -13.0974  -15.8712   -0.4360 H       1  LIG1        0.1424
     80 H         -11.8588  -16.9354   -0.4361 H       1  LIG1        0.1424
     81 C          -9.1562  -16.1913    0.0327 C.ar    1  LIG1        0.1066
     82 C          -9.3220  -17.5404    0.0501 C.ar    1  LIG1        0.0716
     83 C          -8.0179  -18.1318    0.0441 C.ar    1  LIG1        0.0997
     84 C          -7.1124  -17.1180    0.0215 C.ar    1  LIG1        0.0842
     85 N          -7.8050  -15.9283    0.0150 N.ar    1  LIG1       -0.3480
     86 H          -7.3947  -15.0231   -0.0007 H       1  LIG1        0.1661
     87 N         -10.4573  -18.1736    0.0701 N.pl3   1  LIG1       -0.3552
     88 H         -11.1524  -17.6264   -0.3961 H       1  LIG1        0.1424
     89 H         -10.3570  -19.0525   -0.3961 H       1  LIG1        0.1424
     90 N          -7.5060  -20.5241    0.0688 N.1     1  LIG1       -0.1907
     91 C          -7.7459  -19.4029    0.0572 C.1     1  LIG1        0.1032
     92 C          -5.8128  -17.1479    0.0082 C.ar    1  LIG1        0.0855
     93 C          -4.9547  -18.2022    0.0153 C.ar    1  LIG1        0.1197
     94 C          -3.6249  -17.6715   -0.0059 C.ar    1  LIG1        0.1521
     95 C          -3.7288  -16.3162   -0.0269 C.ar    1  LIG1        0.0455
     96 N          -5.0666  -15.9914   -0.0179 N.ar    1  LIG1       -0.3554
     97 H          -5.4351  -15.0683   -0.0291 H       1  LIG1        0.1655
     98 H          -2.8071  -15.3998   -0.0507 H       1  LIG1        0.0845
     99 N          -5.5753  -20.5684    0.0595 N.1     1  LIG1       -0.1907
    100 C          -5.2845  -19.4595    0.0388 C.1     1  LIG1        0.1050
    101 O          -2.5197  -18.3561   -0.0057 O.3     1  LIG1       -0.5040
    102 H          -1.7708  -17.7555   -0.0057 H       1  LIG1        0.2923
@<TRIPOS>BOND
     1    15    13    1
     2    12     9    1
     3    29    26    1
     4    45    42    1
     5    71    68    1
     6    66    64    1
     7    65    64    1
     8    80    78    1
     9    79    78    1
    10    89    87    1
    11    88    87    1
    12    98    95    1
    13    97    96    1
    14    95    96   ar
    15    95    94   ar
    16    96    92   ar
    17    94   101    1
    18    94    93   ar
    19   101   102    1
    20    86    85    1
    21     2     8    1
    22     2     1    2
    23    24    22    1
    24    27    13    1
    25    10     9    1
    26     9     8    1
    27     9    11    1
    28     6     5    1
    29     4    19    1
    30     4     5    2
    31     4     3    1
    32    19    22   ar
    33    19    17   ar
    34     5     1    1
    35    26    14    1
    36    26    28    1
    37    22    23   ar
    38     1     7    1
    39    25    17    1
    40    17    18   ar
    41    13    16    1
    42    23    30    1
    43    23    20   ar
    44    30    31    1
    45    18    20   ar
    46    18    21    1
    47    20    32    1
    48    40    39    1
    49    32    33   ar
    50    32    36   ar
    51    37    36    1
    52    39    38    3
    53    38    33    1
    54    33    34   ar
    55    36    35   ar
    56    35    34   ar
    57    35    48    1
    58    34    41    1
    59    92    93   ar
    60    92    84    1
    61    53    51    1
    62    48    51   ar
    63    48    46   ar
    64    55    54    1
    65    54    46    1
    66    51    52   ar
    67    46    47   ar
    68    41    42    1
    69    42    43    1
    70    42    44    1
    71    52    56    1
    72    52    49   ar
    73    47    49   ar
    74    47    50    1
    75    49    58    1
    76    85    84   ar
    77    85    81   ar
    78    93   100    1
    79    63    59    1
    80    58    57   ar
    81    58    59   ar
    82    64    57    1
    83    57    62   ar
    84    59    60   ar
    85    84    83   ar
    86    62    61   ar
    87    60    61   ar
    88    60    67    1
    89    61    72    1
    90    67    68    1
    91    68    69    1
    92    68    70    1
    93    72    76   ar
    94    72    73   ar
    95    76    75   ar
    96    77    73    1
    97    73    74   ar
    98    75    74   ar
    99    75    81    1
   100    74    78    1
   101    81    82   ar
   102   100    99    3
   103    83    82   ar
   104    83    91    1
   105    82    87    1
   106    91    90    3
