@<TRIPOS>MOLECULE
mol_data/noopt/geoms/mol2/13li4de(90)6fh(90)12hh(170).out
 53 56 0 0 0
SMALL
GASTEIGER

@<TRIPOS>ATOM
      1 C           1.1215   -0.3259    0.0002 C.ar    1  LIG1        0.0446
      2 C           0.7176    0.9721   -0.0005 C.ar    1  LIG1        0.1408
      3 C          -0.7144    0.9744    0.0003 C.ar    1  LIG1        0.0165
      4 C          -1.1226   -0.3223   -0.0003 C.ar    1  LIG1        0.0543
      5 N          -0.0018   -1.1217    0.0001 N.ar    1  LIG1       -0.3573
      6 H          -0.0034   -2.1157   -0.0003 H       1  LIG1        0.1655
      7 H           2.3167   -0.8373    0.0007 H       1  LIG1        0.0844
      8 O           1.4918    2.0165   -0.0003 O.3     1  LIG1       -0.4933
      9 C           2.8590    1.5971   -0.0003 C.3     1  LIG1        0.0789
     10 H           3.4958    2.4569   -0.0003 H       1  LIG1        0.0660
     11 H           3.0520    1.0102    0.8734 H       1  LIG1        0.0660
     12 H           3.0520    1.0102   -0.8739 H       1  LIG1        0.0660
     13 C          -1.4855    2.0214    0.0010 C.3     1  LIG1       -0.0342
     14 H          -2.4003    1.7904    0.5056 H       1  LIG1        0.0279
     15 H          -1.6974    2.3090   -1.0077 H       1  LIG1        0.0279
     16 H          -0.9933    2.8265    0.5056 H       1  LIG1        0.0279
     17 C          -2.9656   -1.1048    1.2224 C.ar    1  LIG1        0.0615
     18 C          -4.2606   -1.6557    1.1690 C.ar    1  LIG1       -0.0347
     19 C          -2.3194   -0.8299   -0.0001 C.ar    1  LIG1        0.0172
     20 C          -4.8866   -1.9213   -0.0467 C.ar    1  LIG1        0.0039
     21 H          -4.7772   -1.8757    2.1006 H       1  LIG1        0.0637
     22 C          -2.9439   -1.0949   -1.2141 C.ar    1  LIG1       -0.0354
     23 C          -4.2308   -1.6420   -1.2464 C.ar    1  LIG1        0.0332
     24 H          -2.4247   -0.8742   -2.1433 H       1  LIG1        0.0637
     25 N          -1.9644   -0.6794    3.4139 N.1     1  LIG1       -0.1908
     26 C          -2.4336   -0.8788    2.3869 C.1     1  LIG1        0.0998
     27 C          -4.8096   -1.8877   -2.3842 C.1     1  LIG1       -0.0690
     28 C          -5.3443   -2.1148   -3.4355 C.1     1  LIG1       -0.1139
     29 H          -5.8207   -2.3171   -4.3720 H       1  LIG1        0.1232
     30 C          -6.7265   -2.7041   -1.2798 C.ar    1  LIG1        0.2210
     31 C          -6.0828   -2.4301   -0.0591 C.ar    1  LIG1        0.0465
     32 C          -6.7571   -2.7170    1.1292 C.ar    1  LIG1       -0.0260
     33 C          -8.0400   -3.2628    1.0590 C.ar    1  LIG1        0.0548
     34 C          -8.5999   -3.5009   -0.2096 C.ar    1  LIG1        0.1322
     35 N          -7.9636   -3.2303   -1.3660 N.ar    1  LIG1       -0.2075
     36 H          -6.2866   -2.5157    2.1020 H       1  LIG1        0.0644
     37 O          -6.1394   -2.4543   -2.4126 O.3     1  LIG1       -0.4920
     38 H          -6.3490   -1.5600   -2.6917 H       1  LIG1        0.2937
     39 N          -8.7092   -3.5474    2.1366 N.pl3   1  LIG1       -0.3562
     40 H          -9.5599   -3.0219    2.1492 H       1  LIG1        0.1424
     41 H          -8.9209   -4.5246    2.1492 H       1  LIG1        0.1424
     42 C          -9.7913   -4.0078   -0.3267 C.ar    1  LIG1        0.1772
     43 C         -10.3304   -5.2763   -0.2682 C.ar    1  LIG1        0.0935
     44 C         -11.7543   -5.1324   -0.4886 C.ar    1  LIG1        0.0845
     45 C         -11.9910   -3.7849   -0.6671 C.ar    1  LIG1        0.1151
     46 O         -10.7961   -3.0708   -0.5717 O.2     1  LIG1       -0.4575
     47 H         -13.0392   -3.0510   -0.8968 H       1  LIG1        0.1049
     48 N          -9.7062   -6.3972   -0.0581 N.pl3   1  LIG1       -0.3536
     49 H         -10.2226   -7.1483   -0.4695 H       1  LIG1        0.1425
     50 H          -8.7958   -6.3539   -0.4695 H       1  LIG1        0.1425
     51 N         -12.6197   -6.1024   -0.5090 N.pl3   1  LIG1       -0.3541
     52 H         -13.4459   -5.8019   -0.9856 H       1  LIG1        0.1425
     53 H         -12.2274   -6.8890   -0.9856 H       1  LIG1        0.1425
@<TRIPOS>BOND
     1    29    28    1
     2    28    27    3
     3    38    37    1
     4    37    30    1
     5    27    23    1
     6    24    22    1
     7    35    30   ar
     8    35    34   ar
     9    30    31   ar
    10    23    22   ar
    11    23    20   ar
    12    22    19   ar
    13    15    13    1
    14    53    51    1
    15    52    51    1
    16    47    45    1
    17    12     9    1
    18    45    46   ar
    19    45    44   ar
    20    46    42   ar
    21    51    44    1
    22    44    43   ar
    23    50    48    1
    24    49    48    1
    25    42    43   ar
    26    42    34    1
    27    43    48    1
    28    34    33   ar
    29    31    20    1
    30    31    32   ar
    31    20    18   ar
    32     2     8    1
    33     2     1   ar
    34     2     3   ar
    35    10     9    1
    36     4    19    1
    37     4     5   ar
    38     4     3   ar
    39     6     5    1
    40     8     9    1
    41     9    11    1
    42    19    17   ar
    43     5     1   ar
    44     1     7    1
    45     3    13    1
    46    13    16    1
    47    13    14    1
    48    33    32   ar
    49    33    39    1
    50    32    36    1
    51    18    17   ar
    52    18    21    1
    53    17    26    1
    54    39    40    1
    55    39    41    1
    56    26    25    3
