@<TRIPOS>MOLECULE
mol_data/noopt/geoms/mol2/13li6dl-12da-4ae.out
 51 54 0 0 0
SMALL
GASTEIGER

@<TRIPOS>ATOM
      1 C           1.1215   -0.3259    0.0002 C.ar    1  LIG1        0.0446
      2 C           0.7176    0.9721   -0.0005 C.ar    1  LIG1        0.1408
      3 C          -0.7144    0.9744    0.0003 C.ar    1  LIG1        0.0165
      4 C          -1.1226   -0.3223   -0.0003 C.ar    1  LIG1        0.0558
      5 N          -0.0018   -1.1217    0.0001 N.ar    1  LIG1       -0.3573
      6 H          -0.0034   -2.1157   -0.0003 H       1  LIG1        0.1655
      7 H           2.3167   -0.8373    0.0007 H       1  LIG1        0.0844
      8 O           1.4918    2.0165   -0.0003 O.3     1  LIG1       -0.4933
      9 C           2.8590    1.5971   -0.0003 C.3     1  LIG1        0.0789
     10 H           3.4958    2.4569   -0.0003 H       1  LIG1        0.0660
     11 H           3.0520    1.0102    0.8734 H       1  LIG1        0.0660
     12 H           3.0520    1.0102   -0.8739 H       1  LIG1        0.0660
     13 C          -1.4855    2.0214    0.0010 C.3     1  LIG1       -0.0342
     14 H          -2.4003    1.7904    0.5056 H       1  LIG1        0.0279
     15 H          -1.6974    2.3090   -1.0077 H       1  LIG1        0.0279
     16 H          -0.9933    2.8265    0.5056 H       1  LIG1        0.0279
     17 C          -2.5002   -2.2250   -0.0210 C.ar    1  LIG1        0.1501
     18 C          -2.3194   -0.8299   -0.0001 C.ar    1  LIG1        0.0380
     19 C          -3.4501   -0.0114    0.0210 C.ar    1  LIG1       -0.0059
     20 C          -4.7120   -0.6083    0.0204 C.ar    1  LIG1        0.1497
     21 C          -4.7903   -2.0130   -0.0016 C.ar    1  LIG1        0.1502
     22 N          -3.7099   -2.8177   -0.0220 N.ar    1  LIG1       -0.2289
     23 H          -3.3484    1.0830    0.0367 H       1  LIG1        0.0662
     24 N          -0.5770   -3.7369   -0.0586 N.1     1  LIG1       -0.1893
     25 C          -1.4783   -3.0283   -0.0410 C.1     1  LIG1        0.1198
     26 O          -5.7953    0.1100    0.0393 O.3     1  LIG1       -0.4928
     27 C          -5.4481    1.4972    0.0462 C.3     1  LIG1        0.0789
     28 H          -6.3401    2.0881    0.0617 H       1  LIG1        0.0660
     29 H          -4.8617    1.7138    0.9147 H       1  LIG1        0.0660
     30 H          -4.8828    1.7278   -0.8324 H       1  LIG1        0.0660
     31 C          -5.9423   -2.6153   -0.0030 C.ar    1  LIG1        0.1747
     32 C          -7.2620   -2.2136   -0.0041 C.ar    1  LIG1        0.0996
     33 C          -8.0629   -3.4201   -0.0055 C.ar    1  LIG1        0.0023
     34 C          -7.1790   -4.4795   -0.0053 C.ar    1  LIG1        0.1371
     35 O          -5.8655   -4.0088   -0.0039 O.2     1  LIG1       -0.4518
     36 N          -8.1312    0.0734   -0.0036 N.1     1  LIG1       -0.1907
     37 C          -7.7239   -0.9984   -0.0039 C.1     1  LIG1        0.1030
     38 H          -9.3620   -3.4671   -0.0068 H       1  LIG1        0.0668
     39 C          -8.5621   -6.3745   -0.0057 C.ar    1  LIG1       -0.0510
     40 C          -8.6245   -7.7814   -0.0050 C.ar    1  LIG1       -0.0599
     41 C          -7.2860   -5.7750   -0.0061 C.ar    1  LIG1        0.0185
     42 C          -7.4687   -8.5590   -0.0053 C.ar    1  LIG1       -0.0463
     43 H          -9.5990   -8.2645   -0.0046 H       1  LIG1        0.0618
     44 C          -6.1318   -6.5509   -0.0063 C.ar    1  LIG1       -0.0357
     45 C          -6.2146   -7.9472   -0.0060 C.ar    1  LIG1        0.0254
     46 H          -5.1594   -6.0650   -0.0065 H       1  LIG1        0.0637
     47 H          -7.5631   -9.8556   -0.0048 H       1  LIG1        0.0630
     48 H          -9.6751   -5.7027   -0.0057 H       1  LIG1        0.0625
     49 C          -5.1322   -8.6673   -0.0061 C.1     1  LIG1       -0.0696
     50 C          -4.1322   -9.3327   -0.0062 C.1     1  LIG1       -0.1139
     51 H          -3.2413   -9.9255   -0.0063 H       1  LIG1        0.1232
@<TRIPOS>BOND
     1    15    13    1
     2    12     9    1
     3    30    27    1
     4    24    25    3
     5    25    17    1
     6    22    17   ar
     7    22    21   ar
     8    17    18   ar
     9    38    33    1
    10    46    44    1
    11    44    41   ar
    12    44    45   ar
    13    51    50    1
    14    50    49    3
    15    49    45    1
    16    41    39   ar
    17    41    34    1
    18    45    42   ar
    19    39    48    1
    20    39    40   ar
    21    33    34   ar
    22    33    32   ar
    23    34    35   ar
    24    42    40   ar
    25    42    47    1
    26    40    43    1
    27    32    37    1
    28    32    31   ar
    29    35    31   ar
    30    37    36    3
    31    31    21    1
    32    21    20   ar
    33     2     8    1
    34     2     1   ar
    35     2     3   ar
    36     4    18    1
    37     4     5   ar
    38     4     3   ar
    39     6     5    1
    40     8     9    1
    41     9    10    1
    42     9    11    1
    43    18    19   ar
    44     5     1   ar
    45     1     7    1
    46     3    13    1
    47    13    16    1
    48    13    14    1
    49    20    19   ar
    50    20    26    1
    51    19    23    1
    52    26    27    1
    53    27    28    1
    54    27    29    1
