@<TRIPOS>MOLECULE
mol_data/noopt/geoms/mol2/13li13li-.out
 32 33 0 0 0
SMALL
GASTEIGER

@<TRIPOS>ATOM
      1 C           1.1215   -0.3259    0.0002 C.ar    1  LIG1        0.0447
      2 C           0.7176    0.9721   -0.0005 C.ar    1  LIG1        0.1408
      3 C          -0.7144    0.9744    0.0003 C.ar    1  LIG1        0.0180
      4 C          -1.1226   -0.3223   -0.0003 C.ar    1  LIG1        0.0730
      5 N          -0.0018   -1.1217    0.0001 N.ar    1  LIG1       -0.3561
      6 H          -0.0034   -2.1157   -0.0003 H       1  LIG1        0.1655
      7 H           2.3167   -0.8373    0.0007 H       1  LIG1        0.0844
      8 O           1.4918    2.0165   -0.0003 O.3     1  LIG1       -0.4933
      9 C           2.8590    1.5971   -0.0003 C.3     1  LIG1        0.0789
     10 H           3.4958    2.4569   -0.0003 H       1  LIG1        0.0660
     11 H           3.0520    1.0102    0.8734 H       1  LIG1        0.0660
     12 H           3.0520    1.0102   -0.8739 H       1  LIG1        0.0660
     13 C          -1.4855    2.0214    0.0010 C.3     1  LIG1       -0.0342
     14 H          -2.4003    1.7904    0.5056 H       1  LIG1        0.0279
     15 H          -1.6974    2.3090   -1.0077 H       1  LIG1        0.0279
     16 H          -0.9933    2.8265    0.5056 H       1  LIG1        0.0279
     17 C          -2.3194   -0.8299   -0.0001 C.ar    1  LIG1        0.1057
     18 C          -2.7274   -2.1266   -0.0005 C.ar    1  LIG1        0.1495
     19 C          -4.1594   -2.1244    0.0011 C.ar    1  LIG1        0.0092
     20 C          -4.5635   -0.8264    0.0006 C.ar    1  LIG1        0.0087
     21 N          -3.4402   -0.0305    0.0003 N.ar    1  LIG1       -0.3563
     22 H          -3.4386    0.9635   -0.0001 H       1  LIG1        0.1655
     23 H          -5.7587   -0.3150    0.0014 H       1  LIG1        0.0811
     24 O          -1.9565   -3.1734   -0.0006 O.3     1  LIG1       -0.4927
     25 C          -2.7589   -4.3571   -0.0007 C.3     1  LIG1        0.0789
     26 H          -2.1240   -5.2184   -0.0010 H       1  LIG1        0.0660
     27 H          -3.3764   -4.3695    0.8731 H       1  LIG1        0.0660
     28 H          -3.3767   -4.3691   -0.8742 H       1  LIG1        0.0660
     29 C          -4.9338   -3.1690    0.0023 C.3     1  LIG1       -0.0348
     30 H          -4.4441   -3.9754    0.5071 H       1  LIG1        0.0279
     31 H          -5.1467   -3.4563   -1.0062 H       1  LIG1        0.0279
     32 H          -5.8478   -2.9348    0.5070 H       1  LIG1        0.0279
@<TRIPOS>BOND
     1    15    13    1
     2    31    29    1
     3    28    25    1
     4    12     9    1
     5    26    25    1
     6    25    24    1
     7    25    27    1
     8    24    18    1
     9     2     8    1
    10     2     1   ar
    11     2     3   ar
    12    18    17   ar
    13    18    19   ar
    14    10     9    1
    15     9     8    1
    16     9    11    1
    17     6     5    1
    18     4    17    1
    19     4     5   ar
    20     4     3   ar
    21    22    21    1
    22    17    21   ar
    23     5     1   ar
    24     1     7    1
    25     3    13    1
    26    21    20   ar
    27    20    19   ar
    28    20    23    1
    29    13    16    1
    30    13    14    1
    31    19    29    1
    32    29    32    1
    33    29    30    1
