@<TRIPOS>MOLECULE
mol_data/noopt/geoms/mol2/13li4he(250)13fa(130)4hf(330).out
 53 56 0 0 0
SMALL
GASTEIGER

@<TRIPOS>ATOM
      1 C           1.1215   -0.3259    0.0002 C.ar    1  LIG1        0.0446
      2 C           0.7176    0.9721   -0.0005 C.ar    1  LIG1        0.1408
      3 C          -0.7144    0.9744    0.0003 C.ar    1  LIG1        0.0165
      4 C          -1.1226   -0.3223   -0.0003 C.ar    1  LIG1        0.0548
      5 N          -0.0018   -1.1217    0.0001 N.ar    1  LIG1       -0.3573
      6 H          -0.0034   -2.1157   -0.0003 H       1  LIG1        0.1655
      7 H           2.3167   -0.8373    0.0007 H       1  LIG1        0.0844
      8 O           1.4918    2.0165   -0.0003 O.3     1  LIG1       -0.4933
      9 C           2.8590    1.5971   -0.0003 C.3     1  LIG1        0.0789
     10 H           3.4958    2.4569   -0.0003 H       1  LIG1        0.0660
     11 H           3.0520    1.0102    0.8734 H       1  LIG1        0.0660
     12 H           3.0520    1.0102   -0.8739 H       1  LIG1        0.0660
     13 C          -1.4855    2.0214    0.0010 C.3     1  LIG1       -0.0342
     14 H          -2.4003    1.7904    0.5056 H       1  LIG1        0.0279
     15 H          -1.6974    2.3090   -1.0077 H       1  LIG1        0.0279
     16 H          -0.9933    2.8265    0.5056 H       1  LIG1        0.0279
     17 C          -2.8032   -1.4885   -1.1490 C.ar    1  LIG1        0.0345
     18 C          -4.1065   -2.0198   -1.0989 C.ar    1  LIG1       -0.0300
     19 C          -2.3194   -0.8299   -0.0001 C.ar    1  LIG1        0.0205
     20 C          -4.8947   -1.9022    0.0437 C.ar    1  LIG1        0.0190
     21 H          -4.4996   -2.5318   -1.9744 H       1  LIG1        0.0643
     22 C          -3.1058   -0.7122    1.1408 C.ar    1  LIG1       -0.0348
     23 C          -4.3979   -1.2470    1.1712 C.ar    1  LIG1        0.0346
     24 H          -2.7101   -0.1997    2.0140 H       1  LIG1        0.0637
     25 N          -2.1158   -1.6300   -2.2432 N.pl3   1  LIG1       -0.3574
     26 H          -2.4927   -2.3860   -2.7783 H       1  LIG1        0.1423
     27 H          -2.1637   -0.7865   -2.7783 H       1  LIG1        0.1423
     28 C          -5.1286   -1.1339    2.2405 C.1     1  LIG1       -0.0690
     29 C          -5.8037   -1.0293    3.2285 C.1     1  LIG1       -0.1139
     30 H          -6.4050   -0.9361    4.1086 H       1  LIG1        0.1232
     31 C          -6.0936   -2.4047    0.0553 C.ar    1  LIG1        0.0902
     32 C          -6.6314   -3.3855    0.8278 C.ar    1  LIG1        0.1426
     33 C          -7.9956   -3.5483    0.4240 C.ar    1  LIG1        0.0059
     34 C          -8.2320   -2.6587   -0.5763 C.ar    1  LIG1        0.0524
     35 N          -7.0700   -1.9568   -0.8055 N.ar    1  LIG1       -0.3511
     36 H          -6.9547   -1.2399   -1.4844 H       1  LIG1        0.1660
     37 O          -6.0167   -4.0519    1.7596 O.3     1  LIG1       -0.5046
     38 H          -5.2000   -3.6025    1.9893 H       1  LIG1        0.2922
     39 H          -8.8530   -4.3901    0.9203 H       1  LIG1        0.0675
     40 C          -9.3593   -1.3338   -2.1504 C.ar    1  LIG1        0.0340
     41 C         -10.5528   -1.1246   -2.8681 C.ar    1  LIG1       -0.0370
     42 C          -9.3122   -2.4270   -1.2613 C.ar    1  LIG1        0.0225
     43 C         -11.6519   -1.9658   -2.7096 C.ar    1  LIG1       -0.0184
     44 H         -10.6107   -0.2867   -3.5593 H       1  LIG1        0.0637
     45 C         -10.4091   -3.2671   -1.1028 C.ar    1  LIG1       -0.0093
     46 C         -11.5858   -3.0430   -1.8250 C.ar    1  LIG1        0.1176
     47 H         -10.3481   -4.1034   -0.4110 H       1  LIG1        0.0661
     48 H         -12.7381   -1.7434   -3.3883 H       1  LIG1        0.0655
     49 N          -8.3676   -0.5152   -2.3410 N.pl3   1  LIG1       -0.3575
     50 H          -7.6468   -0.9790   -2.8562 H       1  LIG1        0.1423
     51 H          -8.6863    0.2804   -2.8562 H       1  LIG1        0.1423
     52 O         -12.6081   -3.8316   -1.6726 O.3     1  LIG1       -0.5067
     53 H         -12.3073   -4.7425   -1.6350 H       1  LIG1        0.2921
@<TRIPOS>BOND
     1    44    41    1
     2    48    43    1
     3    41    43   ar
     4    41    40   ar
     5    51    49    1
     6    50    49    1
     7    27    25    1
     8    26    25    1
     9    43    46   ar
    10    49    40    1
    11    25    17    1
    12    40    42   ar
    13    21    18    1
    14    46    52    1
    15    46    45   ar
    16    52    53    1
    17    36    35    1
    18    42    45   ar
    19    42    34    1
    20    17    18   ar
    21    17    19   ar
    22    45    47    1
    23    18    20   ar
    24    15    13    1
    25    12     9    1
    26    35    34   ar
    27    35    31   ar
    28    34    33   ar
    29     2     8    1
    30     2     1   ar
    31     2     3   ar
    32     6     5    1
    33     8     9    1
    34     9    10    1
    35     9    11    1
    36     4    19    1
    37     4     5   ar
    38     4     3   ar
    39    19    22   ar
    40     5     1   ar
    41     1     7    1
    42     3    13    1
    43    13    16    1
    44    13    14    1
    45    20    31    1
    46    20    23   ar
    47    31    32   ar
    48    33    32   ar
    49    33    39    1
    50    32    37    1
    51    22    23   ar
    52    22    24    1
    53    23    28    1
    54    37    38    1
    55    28    29    3
    56    29    30    1
