@<TRIPOS>MOLECULE
mol_data/noopt/geoms/mol2/13li13li13li13li-.out
 62 59 0 0 0
SMALL
GASTEIGER

@<TRIPOS>ATOM
      1 C           1.1215   -0.3259    0.0002 C.ar    1  LIG1        0.0450
      2 C           0.7176    0.9721   -0.0005 C.ar    1  LIG1        0.1458
      3 C          -0.7144    0.9744    0.0003 C.ar    1  LIG1        0.0562
      4 C          -1.1226   -0.3223   -0.0003 C.ar    1  LIG1        0.0783
      5 N          -0.0018   -1.1217    0.0001 N.ar    1  LIG1       -0.3559
      6 H          -0.0034   -2.1157   -0.0003 H       1  LIG1        0.1655
      7 H           2.3167   -0.8373    0.0007 H       1  LIG1        0.0844
      8 O           1.4918    2.0165   -0.0003 O.3     1  LIG1       -0.4930
      9 C           2.8590    1.5971   -0.0003 C.3     1  LIG1        0.0789
     10 H           3.4958    2.4569   -0.0003 H       1  LIG1        0.0660
     11 H           3.0520    1.0102    0.8734 H       1  LIG1        0.0660
     12 H           3.0520    1.0102   -0.8739 H       1  LIG1        0.0660
     13 C          -1.4855    2.0214    0.0010 C.3     1  LIG1       -0.0382
     14 H          -2.4003    1.7904    0.5056 H       2  UNK2        0.0000
     15 H          -1.6974    2.3090   -1.0077 H       3  UNK3        0.0000
     16 H          -0.9933    2.8265    0.5056 H       1  LIG1        0.0303
     17 C          -2.3194   -0.8299   -0.0001 C.ar    1  LIG1        0.1120
     18 C          -3.5353   -0.2219   -0.0003 C.ar    1  LIG1        0.2140
     19 C          -4.5290   -1.2530    0.0012 C.ar    1  LIG1        0.0621
     20 C          -3.8767   -2.4457    0.0005 C.ar    1  LIG1        0.0789
     21 N          -2.5238   -2.1913    0.0002 N.ar    1  LIG1       -0.3482
     22 H          -1.8081   -2.8811   -0.0004 H       1  LIG1        0.1661
     23 O          -3.7520    1.0599   -0.0003 O.3     1  LIG1       -0.2849
     24 C          -2.5024    1.7552   -0.0003 C.3     1  LIG1       -0.0619
     25 H          -2.6813    2.8102   -0.0005 H       1  LIG1        0.0233
     26 H          -1.9455    1.4880    0.8734 H       1  LIG1        0.0233
     27 H          -1.9455    1.4878   -0.8739 H       1  LIG1        0.0233
     28 C          -5.8182   -1.0837    0.0025 C.3     2  UNK2       -0.0382
     29 H          -6.2852   -1.9035    0.5073 H       4  UNK4        0.0000
     30 H          -6.1729   -1.0372   -1.0060 H       5  UNK5        0.0000
     31 H          -6.0576   -0.1710    0.5072 H       2  UNK2        0.0303
     32 C          -4.3398   -3.6604    0.0012 C.ar    1  LIG1        0.1116
     33 C          -5.6206   -4.1160    0.0013 C.ar    1  LIG1        0.2090
     34 C          -5.5655   -5.5470    0.0033 C.ar    1  LIG1        0.0237
     35 C          -4.2535   -5.9029    0.0026 C.ar    1  LIG1        0.0737
     36 N          -3.4996   -4.7510    0.0018 N.ar    1  LIG1       -0.3485
     37 H          -2.5064   -4.7127    0.0010 H       1  LIG1        0.1661
     38 O          -6.6951   -3.3843    0.0012 O.3     1  LIG1       -0.2853
     39 C          -6.3308   -2.0014    0.0011 C.3     2  UNK2       -0.0619
     40 H          -7.2155   -1.3995    0.0009 H       2  UNK2        0.0233
     41 H          -5.7524   -1.7849    0.8749 H       2  UNK2        0.0233
     42 H          -5.7521   -1.7851   -0.8724 H       2  UNK2        0.0233
     43 C          -6.5808   -6.3594    0.0050 C.3     1  LIG1       -0.0340
     44 H          -6.3129   -7.2640    0.5099 H       1  LIG1        0.0279
     45 H          -6.8603   -6.5831   -1.0034 H       1  LIG1        0.0279
     46 H          -7.4046   -5.8996    0.5099 H       1  LIG1        0.0279
     47 C          -3.6983   -7.0784    0.0036 C.ar    1  LIG1        0.1057
     48 C          -2.3863   -7.4341    0.0038 C.ar    1  LIG1        0.1495
     49 C          -2.3311   -8.8651    0.0062 C.ar    1  LIG1        0.0092
     50 C          -3.6119   -9.3208    0.0056 C.ar    1  LIG1        0.0087
     51 N          -4.4521   -8.2303    0.0045 N.ar    1  LIG1       -0.3563
     52 H          -5.4454   -8.2686    0.0038 H       1  LIG1        0.1655
     53 H          -4.0750  -10.5356    0.0070 H       1  LIG1        0.0811
     54 O          -1.3712   -6.6219    0.0035 O.3     1  LIG1       -0.4927
     55 C          -0.1564   -7.3762    0.0033 C.3     1  LIG1        0.0789
     56 H           0.6788   -6.7073    0.0028 H       1  LIG1        0.0660
     57 H          -0.1191   -7.9926    0.8771 H       1  LIG1        0.0660
     58 H          -0.1197   -7.9931   -0.8702 H       1  LIG1        0.0660
     59 C          -1.2564   -9.5970    0.0081 C.3     1  LIG1       -0.0348
     60 H          -0.4704   -9.0752    0.5131 H       1  LIG1        0.0279
     61 H          -0.9603   -9.7985   -1.0002 H       1  LIG1        0.0279
     62 H          -1.4540  -10.5194    0.5130 H       1  LIG1        0.0279
@<TRIPOS>BOND
     1    45    43    1
     2    61    59    1
     3    27    24    1
     4    12     9    1
     5    42    39    1
     6    58    55    1
     7     2     8    1
     8     2     1   ar
     9     2     3   ar
    10    25    24    1
    11    22    21    1
    12    24    13    1
    13    24    26    1
    14    18    23    1
    15    18    17   ar
    16    18    19   ar
    17    10     9    1
    18     9     8    1
    19     9    11    1
    20     6     5    1
    21     4    17    1
    22     4     5   ar
    23     4     3   ar
    24    17    21   ar
    25     5     1   ar
    26    21    20   ar
    27     1     7    1
    28    20    19   ar
    29    20    32    1
    30    40    39    1
    31    37    36    1
    32    13    16    1
    33    39    28    1
    34    39    41    1
    35    32    33   ar
    36    32    36   ar
    37    38    33    1
    38    33    34   ar
    39    36    35   ar
    40    28    31    1
    41    35    34   ar
    42    35    47    1
    43    56    55    1
    44    55    54    1
    45    55    57    1
    46    34    43    1
    47    54    48    1
    48    47    48   ar
    49    47    51   ar
    50    52    51    1
    51    48    49   ar
    52    51    50   ar
    53    43    46    1
    54    43    44    1
    55    50    49   ar
    56    50    53    1
    57    49    59    1
    58    59    62    1
    59    59    60    1
