@<TRIPOS>MOLECULE
mol_data/noopt/geoms/mol2/13li13li-13li13li-.out
 62 64 0 0 0
SMALL
GASTEIGER

@<TRIPOS>ATOM
      1 C           1.1215   -0.3259    0.0002 C.ar    1  LIG1        0.0447
      2 C           0.7176    0.9721   -0.0005 C.ar    1  LIG1        0.1408
      3 C          -0.7144    0.9744    0.0003 C.ar    1  LIG1        0.0181
      4 C          -1.1226   -0.3223   -0.0003 C.ar    1  LIG1        0.0751
      5 N          -0.0018   -1.1217    0.0001 N.ar    1  LIG1       -0.3561
      6 H          -0.0034   -2.1157   -0.0003 H       1  LIG1        0.1655
      7 H           2.3167   -0.8373    0.0007 H       1  LIG1        0.0844
      8 O           1.4918    2.0165   -0.0003 O.3     1  LIG1       -0.4933
      9 C           2.8590    1.5971   -0.0003 C.3     1  LIG1        0.0789
     10 H           3.4958    2.4569   -0.0003 H       1  LIG1        0.0660
     11 H           3.0520    1.0102    0.8734 H       1  LIG1        0.0660
     12 H           3.0520    1.0102   -0.8739 H       1  LIG1        0.0660
     13 C          -1.4855    2.0214    0.0010 C.3     1  LIG1       -0.0342
     14 H          -2.4003    1.7904    0.5056 H       1  LIG1        0.0279
     15 H          -1.6974    2.3090   -1.0077 H       1  LIG1        0.0279
     16 H          -0.9933    2.8265    0.5056 H       1  LIG1        0.0279
     17 C          -2.3194   -0.8299   -0.0001 C.ar    1  LIG1        0.1300
     18 C          -2.7274   -2.1266   -0.0005 C.ar    1  LIG1        0.1523
     19 C          -4.1594   -2.1244    0.0011 C.ar    1  LIG1        0.0208
     20 C          -4.5635   -0.8264    0.0006 C.ar    1  LIG1        0.0982
     21 N          -3.4402   -0.0305    0.0003 N.ar    1  LIG1       -0.2396
     22 H          -3.4386    0.9635   -0.0001 H       1  LIG1        0.0194
     23 O          -1.9565   -3.1734   -0.0006 O.3     1  LIG1       -0.4926
     24 C          -2.7589   -4.3571   -0.0007 C.3     1  LIG1        0.0789
     25 H          -2.1240   -5.2184   -0.0010 H       1  LIG1        0.0660
     26 H          -3.3764   -4.3695    0.8731 H       1  LIG1        0.0660
     27 H          -3.3767   -4.3691   -0.8742 H       1  LIG1        0.0660
     28 C          -4.9338   -3.1690    0.0023 C.3     1  LIG1       -0.0341
     29 H          -4.4441   -3.9754    0.5071 H       1  LIG1        0.0279
     30 H          -5.1467   -3.4563   -1.0062 H       1  LIG1        0.0279
     31 H          -5.8478   -2.9348    0.5070 H       1  LIG1        0.0279
     32 C          -5.7587   -0.3150    0.0014 C.ar    1  LIG1        0.1133
     33 C          -6.1626    0.9830    0.0016 C.ar    1  LIG1        0.2091
     34 C          -7.5946    0.9853    0.0038 C.ar    1  LIG1        0.0237
     35 C          -8.0028   -0.3114    0.0030 C.ar    1  LIG1        0.0737
     36 N          -6.8820   -1.1108    0.0021 N.ar    1  LIG1       -0.3484
     37 H          -6.8836   -2.1048    0.0013 H       1  LIG1        0.1661
     38 O          -5.3884    2.0274    0.0015 O.3     1  LIG1       -0.2853
     39 C          -4.0213    1.6080    0.0014 C.3     2  LIG2       -0.0776
     40 H          -3.3844    2.4678    0.0012 H       1  LIG1        0.0194
     41 H          -3.8281    1.0213    0.8752 H       1  LIG1        0.0194
     42 H          -3.8283    1.0210   -0.8721 H       1  LIG1        0.0194
     43 C          -8.3657    2.0323    0.0056 C.3     1  LIG1       -0.0340
     44 H          -9.2802    1.8009    0.5105 H       1  LIG1        0.0279
     45 H          -8.5781    2.3207   -1.0028 H       1  LIG1        0.0279
     46 H          -7.8732    2.8370    0.5105 H       1  LIG1        0.0279
     47 C          -9.1996   -0.8190    0.0041 C.ar    1  LIG1        0.1057
     48 C          -9.6076   -2.1157    0.0044 C.ar    1  LIG1        0.1495
     49 C         -11.0396   -2.1135    0.0069 C.ar    1  LIG1        0.0092
     50 C         -11.4437   -0.8155    0.0063 C.ar    1  LIG1        0.0087
     51 N         -10.3204   -0.0196    0.0051 N.ar    1  LIG1       -0.3563
     52 H         -10.3188    0.9744    0.0043 H       1  LIG1        0.1655
     53 H         -12.6389   -0.3041    0.0077 H       1  LIG1        0.0811
     54 O          -8.8367   -3.1625    0.0040 O.3     1  LIG1       -0.4927
     55 C          -9.6391   -4.3462    0.0038 C.3     1  LIG1        0.0789
     56 H          -9.0042   -5.2075    0.0034 H       1  LIG1        0.0660
     57 H         -10.2566   -4.3587    0.8777 H       1  LIG1        0.0660
     58 H         -10.2570   -4.3581   -0.8696 H       1  LIG1        0.0660
     59 C         -11.8140   -3.1580    0.0089 C.3     1  LIG1       -0.0348
     60 H         -11.3242   -3.9642    0.5139 H       1  LIG1        0.0279
     61 H         -12.0273   -3.4459   -0.9994 H       1  LIG1        0.0279
     62 H         -12.7278   -2.9236    0.5138 H       1  LIG1        0.0279
@<TRIPOS>BOND
     1    15    13    1
     2    30    28    1
     3    45    43    1
     4    61    59    1
     5    27    24    1
     6    12     9    1
     7    42    39    1
     8    58    55    1
     9    25    24    1
    10    24    23    1
    11    24    26    1
    12    23    18    1
    13     2     8    1
    14     2     1   ar
    15     2     3   ar
    16    18    17   ar
    17    18    19   ar
    18    10     9    1
    19     9     8    1
    20     9    11    1
    21     6     5    1
    22     4    17    1
    23     4     5   ar
    24     4     3   ar
    25    22    39    1
    26    17    21   ar
    27     5     1   ar
    28     1     7    1
    29     3    13    1
    30    21    20   ar
    31    20    19   ar
    32    20    32    1
    33    13    16    1
    34    13    14    1
    35    19    28    1
    36    40    39    1
    37    37    36    1
    38    39    41    1
    39    32    33   ar
    40    32    36   ar
    41    38    33    1
    42    33    34   ar
    43    36    35   ar
    44    28    31    1
    45    28    29    1
    46    35    34   ar
    47    35    47    1
    48    56    55    1
    49    34    43    1
    50    55    54    1
    51    55    57    1
    52    54    48    1
    53    47    48   ar
    54    47    51   ar
    55    52    51    1
    56    48    49   ar
    57    51    50   ar
    58    43    46    1
    59    43    44    1
    60    50    49   ar
    61    50    53    1
    62    49    59    1
    63    59    62    1
    64    59    60    1
