@<TRIPOS>MOLECULE
mol_data/noopt/geoms/mol2/13li13li13li-13li-.out
 62 62 0 0 0
SMALL
GASTEIGER

@<TRIPOS>ATOM
      1 C           1.1215   -0.3259    0.0002 C.ar    1  LIG1        0.0450
      2 C           0.7176    0.9721   -0.0005 C.ar    1  LIG1        0.1458
      3 C          -0.7144    0.9744    0.0003 C.ar    1  LIG1        0.0562
      4 C          -1.1226   -0.3223   -0.0003 C.ar    1  LIG1        0.0783
      5 N          -0.0018   -1.1217    0.0001 N.ar    1  LIG1       -0.3559
      6 H          -0.0034   -2.1157   -0.0003 H       1  LIG1        0.1655
      7 H           2.3167   -0.8373    0.0007 H       1  LIG1        0.0844
      8 O           1.4918    2.0165   -0.0003 O.3     1  LIG1       -0.4930
      9 C           2.8590    1.5971   -0.0003 C.3     1  LIG1        0.0789
     10 H           3.4958    2.4569   -0.0003 H       1  LIG1        0.0660
     11 H           3.0520    1.0102    0.8734 H       1  LIG1        0.0660
     12 H           3.0520    1.0102   -0.8739 H       1  LIG1        0.0660
     13 C          -1.4855    2.0214    0.0010 C.3     1  LIG1       -0.0382
     14 H          -2.4003    1.7904    0.5056 H       2  UNK2        0.0000
     15 H          -1.6974    2.3090   -1.0077 H       3  UNK3        0.0000
     16 H          -0.9933    2.8265    0.5056 H       1  LIG1        0.0303
     17 C          -2.3194   -0.8299   -0.0001 C.ar    1  LIG1        0.1116
     18 C          -3.5353   -0.2219   -0.0003 C.ar    1  LIG1        0.2090
     19 C          -4.5290   -1.2530    0.0012 C.ar    1  LIG1        0.0237
     20 C          -3.8767   -2.4457    0.0005 C.ar    1  LIG1        0.0737
     21 N          -2.5238   -2.1913    0.0002 N.ar    1  LIG1       -0.3485
     22 H          -1.8081   -2.8811   -0.0004 H       1  LIG1        0.1661
     23 O          -3.7520    1.0599   -0.0003 O.3     1  LIG1       -0.2853
     24 C          -2.5024    1.7552   -0.0003 C.3     1  LIG1       -0.0619
     25 H          -2.6813    2.8102   -0.0005 H       1  LIG1        0.0233
     26 H          -1.9455    1.4880    0.8734 H       1  LIG1        0.0233
     27 H          -1.9455    1.4878   -0.8739 H       1  LIG1        0.0233
     28 C          -5.8182   -1.0837    0.0025 C.3     1  LIG1       -0.0340
     29 H          -6.2852   -1.9035    0.5073 H       1  LIG1        0.0279
     30 H          -6.1729   -1.0372   -1.0060 H       1  LIG1        0.0279
     31 H          -6.0576   -0.1710    0.5072 H       1  LIG1        0.0279
     32 C          -4.3398   -3.6604    0.0012 C.ar    1  LIG1        0.1062
     33 C          -3.6874   -4.8530    0.0012 C.ar    1  LIG1        0.1502
     34 C          -4.6811   -5.8841    0.0032 C.ar    1  LIG1        0.0187
     35 C          -5.8970   -5.2763    0.0027 C.ar    1  LIG1        0.0735
     36 N          -5.6927   -3.9149    0.0019 N.ar    1  LIG1       -0.3486
     37 H          -6.4084   -3.2251    0.0013 H       1  LIG1        0.1661
     38 O          -2.3984   -5.0223    0.0009 O.3     1  LIG1       -0.4927
     39 C          -2.1007   -6.4210    0.0008 C.3     1  LIG1        0.0789
     40 H          -1.0397   -6.5599    0.0004 H       1  LIG1        0.0660
     41 H          -2.5195   -6.8749    0.8746 H       1  LIG1        0.0660
     42 H          -2.5201   -6.8748   -0.8727 H       1  LIG1        0.0660
     43 C          -4.4643   -7.1663    0.0049 C.3     1  LIG1       -0.0341
     44 H          -3.5435   -7.3717    0.5097 H       1  LIG1        0.0279
     45 H          -4.4045   -7.5192   -1.0035 H       1  LIG1        0.0279
     46 H          -5.2664   -7.6629    0.5097 H       1  LIG1        0.0279
     47 C          -7.0939   -5.7839    0.0038 C.ar    1  LIG1        0.1057
     48 C          -7.5019   -7.0806    0.0041 C.ar    1  LIG1        0.1495
     49 C          -8.9339   -7.0784    0.0067 C.ar    1  LIG1        0.0092
     50 C          -9.3380   -5.7804    0.0061 C.ar    1  LIG1        0.0087
     51 N          -8.2146   -4.9846    0.0048 N.ar    1  LIG1       -0.3563
     52 H          -8.2131   -3.9906    0.0040 H       1  LIG1        0.1655
     53 H         -10.5331   -5.2690    0.0075 H       1  LIG1        0.0811
     54 O          -6.7309   -8.1274    0.0038 O.3     1  LIG1       -0.4927
     55 C          -7.5333   -9.3111    0.0036 C.3     1  LIG1        0.0789
     56 H          -6.8985  -10.1724    0.0031 H       1  LIG1        0.0660
     57 H          -8.1508   -9.3236    0.8774 H       1  LIG1        0.0660
     58 H          -8.1512   -9.3230   -0.8699 H       1  LIG1        0.0660
     59 C          -9.7082   -8.1230    0.0087 C.3     1  LIG1       -0.0348
     60 H          -9.2184   -8.9291    0.5137 H       1  LIG1        0.0279
     61 H          -9.9216   -8.4108   -0.9996 H       1  LIG1        0.0279
     62 H         -10.6220   -7.8885    0.5136 H       1  LIG1        0.0279
@<TRIPOS>BOND
     1    30    28    1
     2    45    43    1
     3    61    59    1
     4    27    24    1
     5    12     9    1
     6    42    39    1
     7    58    55    1
     8     2     8    1
     9     2     1   ar
    10     2     3   ar
    11    25    24    1
    12    22    21    1
    13    24    13    1
    14    24    26    1
    15    18    23    1
    16    18    17   ar
    17    18    19   ar
    18    10     9    1
    19     9     8    1
    20     9    11    1
    21     6     5    1
    22     4    17    1
    23     4     5   ar
    24     4     3   ar
    25    17    21   ar
    26     5     1   ar
    27    21    20   ar
    28     1     7    1
    29    40    39    1
    30    20    19   ar
    31    20    32    1
    32    39    38    1
    33    39    41    1
    34    38    33    1
    35    13    16    1
    36    33    32   ar
    37    33    34   ar
    38    19    28    1
    39    32    36   ar
    40    37    36    1
    41    36    35   ar
    42    28    31    1
    43    28    29    1
    44    35    34   ar
    45    35    47    1
    46    56    55    1
    47    34    43    1
    48    55    54    1
    49    55    57    1
    50    54    48    1
    51    47    48   ar
    52    47    51   ar
    53    52    51    1
    54    48    49   ar
    55    51    50   ar
    56    43    46    1
    57    43    44    1
    58    50    49   ar
    59    50    53    1
    60    49    59    1
    61    59    62    1
    62    59    60    1
