@<TRIPOS>MOLECULE
mol_data/noopt/geoms/mol2/13li13li-13li-13li-.out
 62 65 0 0 0
SMALL
GASTEIGER

@<TRIPOS>ATOM
      1 C           1.1215   -0.3259    0.0002 C.ar    1  LIG1        0.0447
      2 C           0.7176    0.9721   -0.0005 C.ar    1  LIG1        0.1408
      3 C          -0.7144    0.9744    0.0003 C.ar    1  LIG1        0.0180
      4 C          -1.1226   -0.3223   -0.0003 C.ar    1  LIG1        0.0730
      5 N          -0.0018   -1.1217    0.0001 N.ar    1  LIG1       -0.3561
      6 H          -0.0034   -2.1157   -0.0003 H       1  LIG1        0.1655
      7 H           2.3167   -0.8373    0.0007 H       1  LIG1        0.0844
      8 O           1.4918    2.0165   -0.0003 O.3     1  LIG1       -0.4933
      9 C           2.8590    1.5971   -0.0003 C.3     1  LIG1        0.0789
     10 H           3.4958    2.4569   -0.0003 H       1  LIG1        0.0660
     11 H           3.0520    1.0102    0.8734 H       1  LIG1        0.0660
     12 H           3.0520    1.0102   -0.8739 H       1  LIG1        0.0660
     13 C          -1.4855    2.0214    0.0010 C.3     1  LIG1       -0.0342
     14 H          -2.4003    1.7904    0.5056 H       1  LIG1        0.0279
     15 H          -1.6974    2.3090   -1.0077 H       1  LIG1        0.0279
     16 H          -0.9933    2.8265    0.5056 H       1  LIG1        0.0279
     17 C          -2.3194   -0.8299   -0.0001 C.ar    1  LIG1        0.1062
     18 C          -2.7274   -2.1266   -0.0005 C.ar    1  LIG1        0.1502
     19 C          -4.1594   -2.1244    0.0011 C.ar    1  LIG1        0.0187
     20 C          -4.5635   -0.8264    0.0006 C.ar    1  LIG1        0.0735
     21 N          -3.4402   -0.0305    0.0003 N.ar    1  LIG1       -0.3486
     22 H          -3.4386    0.9635   -0.0001 H       1  LIG1        0.1661
     23 O          -1.9565   -3.1734   -0.0006 O.3     1  LIG1       -0.4927
     24 C          -2.7589   -4.3571   -0.0007 C.3     1  LIG1        0.0789
     25 H          -2.1240   -5.2184   -0.0010 H       1  LIG1        0.0660
     26 H          -3.3764   -4.3695    0.8731 H       1  LIG1        0.0660
     27 H          -3.3767   -4.3691   -0.8742 H       1  LIG1        0.0660
     28 C          -4.9338   -3.1690    0.0023 C.3     1  LIG1       -0.0341
     29 H          -4.4441   -3.9754    0.5071 H       1  LIG1        0.0279
     30 H          -5.1467   -3.4563   -1.0062 H       1  LIG1        0.0279
     31 H          -5.8478   -2.9348    0.5070 H       1  LIG1        0.0279
     32 C          -5.7587   -0.3150    0.0014 C.ar    1  LIG1        0.1062
     33 C          -6.9765   -0.9191    0.0015 C.ar    1  LIG1        0.1502
     34 C          -7.9670    0.1151    0.0037 C.ar    1  LIG1        0.0187
     35 C          -7.3109    1.3057    0.0031 C.ar    1  LIG1        0.0735
     36 N          -5.9587    1.0470    0.0022 N.ar    1  LIG1       -0.3486
     37 H          -5.2408    1.7345    0.0016 H       1  LIG1        0.1661
     38 O          -7.1973   -2.2003    0.0012 O.3     1  LIG1       -0.4927
     39 C          -8.6068   -2.4417    0.0010 C.3     1  LIG1        0.0789
     40 H          -8.7881   -3.4962    0.0007 H       1  LIG1        0.0660
     41 H          -9.0435   -2.0050    0.8749 H       1  LIG1        0.0660
     42 H          -9.0434   -2.0044   -0.8724 H       1  LIG1        0.0660
     43 C          -9.2567   -0.0501    0.0054 C.3     1  LIG1       -0.0341
     44 H          -9.4988   -0.9619    0.5103 H       1  LIG1        0.0279
     45 H          -9.6119   -0.0957   -1.0029 H       1  LIG1        0.0279
     46 H          -9.7208    0.7712    0.5103 H       1  LIG1        0.0279
     47 C          -7.7701    2.5219    0.0044 C.ar    1  LIG1        0.1057
     48 C          -9.0494    2.9816    0.0047 C.ar    1  LIG1        0.1495
     49 C          -8.9898    4.4124    0.0074 C.ar    1  LIG1        0.0092
     50 C          -7.6767    4.7641    0.0068 C.ar    1  LIG1        0.0087
     51 N          -6.9265    3.6098    0.0054 N.ar    1  LIG1       -0.3563
     52 H          -5.9333    3.5684    0.0046 H       1  LIG1        0.1655
     53 H          -7.1178    5.9378    0.0083 H       1  LIG1        0.0811
     54 O         -10.1263    2.2532    0.0043 O.3     1  LIG1       -0.4927
     55 C         -11.2768    3.1024    0.0041 C.3     1  LIG1        0.0789
     56 H         -12.1629    2.5026    0.0037 H       1  LIG1        0.0660
     57 H         -11.2646    3.7199    0.8780 H       1  LIG1        0.0660
     58 H         -11.2640    3.7203   -0.8693 H       1  LIG1        0.0660
     59 C         -10.0025    5.2280    0.0095 C.3     1  LIG1       -0.0348
     60 H         -10.8277    4.7708    0.5145 H       1  LIG1        0.0279
     61 H         -10.2816    5.4527   -0.9988 H       1  LIG1        0.0279
     62 H          -9.7316    6.1316    0.5144 H       1  LIG1        0.0279
@<TRIPOS>BOND
     1    15    13    1
     2    30    28    1
     3    45    43    1
     4    61    59    1
     5    27    24    1
     6    12     9    1
     7    42    39    1
     8    58    55    1
     9    25    24    1
    10    24    23    1
    11    24    26    1
    12    23    18    1
    13     2     8    1
    14     2     1   ar
    15     2     3   ar
    16    18    17   ar
    17    18    19   ar
    18    10     9    1
    19     9     8    1
    20     9    11    1
    21     6     5    1
    22     4    17    1
    23     4     5   ar
    24     4     3   ar
    25    22    21    1
    26    17    21   ar
    27     5     1   ar
    28     1     7    1
    29     3    13    1
    30    21    20   ar
    31    20    19   ar
    32    20    32    1
    33    40    39    1
    34    13    16    1
    35    13    14    1
    36    39    38    1
    37    39    41    1
    38    19    28    1
    39    38    33    1
    40    32    33   ar
    41    32    36   ar
    42    33    34   ar
    43    37    36    1
    44    36    35   ar
    45    28    31    1
    46    28    29    1
    47    35    34   ar
    48    35    47    1
    49    56    55    1
    50    34    43    1
    51    55    54    1
    52    55    57    1
    53    54    48    1
    54    47    48   ar
    55    47    51   ar
    56    52    51    1
    57    48    49   ar
    58    51    50   ar
    59    43    46    1
    60    43    44    1
    61    50    49   ar
    62    50    53    1
    63    49    59    1
    64    59    62    1
    65    59    60    1
