@<TRIPOS>MOLECULE
mol_data/noopt/geoms/mol2/13li13ea(30)4hl(340)4ad(80).out
 54 57 0 0 0
SMALL
GASTEIGER

@<TRIPOS>ATOM
      1 C           1.1215   -0.3259    0.0002 C.ar    1  LIG1        0.0447
      2 C           0.7176    0.9721   -0.0005 C.ar    1  LIG1        0.1408
      3 C          -0.7144    0.9744    0.0003 C.ar    1  LIG1        0.0179
      4 C          -1.1226   -0.3223   -0.0003 C.ar    1  LIG1        0.0706
      5 N          -0.0018   -1.1217    0.0001 N.ar    1  LIG1       -0.3562
      6 H          -0.0034   -2.1157   -0.0003 H       1  LIG1        0.1655
      7 H           2.3167   -0.8373    0.0007 H       1  LIG1        0.0844
      8 O           1.4918    2.0165   -0.0003 O.3     1  LIG1       -0.4933
      9 C           2.8590    1.5971   -0.0003 C.3     1  LIG1        0.0789
     10 H           3.4958    2.4569   -0.0003 H       1  LIG1        0.0660
     11 H           3.0520    1.0102    0.8734 H       1  LIG1        0.0660
     12 H           3.0520    1.0102   -0.8739 H       1  LIG1        0.0660
     13 C          -1.4855    2.0214    0.0010 C.3     1  LIG1       -0.0342
     14 H          -2.4003    1.7904    0.5056 H       1  LIG1        0.0279
     15 H          -1.6974    2.3090   -1.0077 H       1  LIG1        0.0279
     16 H          -0.9933    2.8265    0.5056 H       1  LIG1        0.0279
     17 C          -2.3194   -0.8299   -0.0001 C.ar    1  LIG1        0.0793
     18 C          -3.4881   -0.3330    0.4850 C.ar    1  LIG1        0.0519
     19 C          -4.5072   -1.3043    0.2231 C.ar    1  LIG1       -0.0203
     20 C          -3.9168   -2.3513   -0.4121 C.ar    1  LIG1        0.0500
     21 N          -2.5773   -2.0652   -0.5503 N.ar    1  LIG1       -0.3520
     22 H          -1.9035   -2.6564   -0.9798 H       1  LIG1        0.1660
     23 C          -3.6470    0.8128    1.0782 C.1     1  LIG1       -0.0675
     24 C          -3.7939    1.8715    1.6264 C.1     1  LIG1       -0.1138
     25 H          -3.9247    2.8145    2.1147 H       1  LIG1        0.1232
     26 H          -5.7658   -1.2064    0.5334 H       1  LIG1        0.0651
     27 C          -5.6839   -3.4640   -1.4813 C.ar    1  LIG1        0.0346
     28 C          -6.1888   -4.6968   -1.9380 C.ar    1  LIG1       -0.0292
     29 C          -4.4226   -3.4654   -0.8512 C.ar    1  LIG1        0.0224
     30 C          -5.4711   -5.8798   -1.7762 C.ar    1  LIG1        0.0256
     31 H          -7.1602   -4.7185   -2.4269 H       1  LIG1        0.0643
     32 C          -3.7057   -4.6460   -0.6893 C.ar    1  LIG1       -0.0085
     33 C          -4.2241   -5.8607   -1.1503 C.ar    1  LIG1        0.1285
     34 H          -2.7353   -4.6210   -0.2001 H       1  LIG1        0.0661
     35 N          -6.3997   -2.3939   -1.6612 N.pl3   1  LIG1       -0.3574
     36 H          -5.8683   -1.7198   -2.1743 H       1  LIG1        0.1423
     37 H          -7.2256   -2.6277   -2.1743 H       1  LIG1        0.1423
     38 O          -3.5495   -6.9612   -0.9960 O.3     1  LIG1       -0.4945
     39 C          -4.4510   -8.0698   -0.9395 C.3     1  LIG1        0.0788
     40 H          -3.8954   -8.9753   -0.8127 H       1  LIG1        0.0660
     41 H          -5.1203   -7.9435   -0.1142 H       1  LIG1        0.0660
     42 H          -5.0121   -8.1200   -1.8492 H       1  LIG1        0.0660
     43 C          -6.5915   -7.8875   -1.3096 C.ar    1  LIG1       -0.0538
     44 C          -7.1117   -9.0888   -1.8288 C.ar    1  LIG1       -0.0600
     45 C          -5.9673   -7.0002   -2.2101 C.ar    1  LIG1       -0.0131
     46 C          -7.0162   -9.3949   -3.1844 C.ar    1  LIG1       -0.0443
     47 H          -7.5972   -9.7877   -1.1514 H       1  LIG1        0.0618
     48 C          -5.8717   -7.3054   -3.5635 C.ar    1  LIG1       -0.0365
     49 C          -6.3949   -8.5037   -4.0602 C.ar    1  LIG1        0.0524
     50 H          -5.3855   -6.6049   -4.2378 H       1  LIG1        0.0636
     51 H          -7.5075  -10.5131   -3.6298 H       1  LIG1        0.0630
     52 H          -6.7112   -7.6574   -0.0357 H       1  LIG1        0.0624
     53 N          -6.2209   -9.0306   -6.4431 N.1     1  LIG1       -0.1909
     54 C          -6.3025   -8.7837   -5.3263 C.1     1  LIG1        0.0992
@<TRIPOS>BOND
     1    53    54    3
     2    54    49    1
     3    50    48    1
     4    49    48   ar
     5    49    46   ar
     6    51    46    1
     7    48    45   ar
     8    46    44   ar
     9    31    28    1
    10    45    30    1
    11    45    43   ar
    12    37    35    1
    13    36    35    1
    14    28    30   ar
    15    28    27   ar
    16    42    39    1
    17    44    43   ar
    18    44    47    1
    19    30    33   ar
    20    35    27    1
    21    27    29   ar
    22    43    52    1
    23    33    38    1
    24    33    32   ar
    25    15    13    1
    26    38    39    1
    27    22    21    1
    28    39    40    1
    29    39    41    1
    30    12     9    1
    31    29    32   ar
    32    29    20    1
    33    32    34    1
    34    21    20   ar
    35    21    17   ar
    36    20    19   ar
    37     2     8    1
    38     2     1   ar
    39     2     3   ar
    40     4    17    1
    41     4     5   ar
    42     4     3   ar
    43    10     9    1
    44     6     5    1
    45     8     9    1
    46     9    11    1
    47    17    18   ar
    48     5     1   ar
    49     1     7    1
    50     3    13    1
    51    13    16    1
    52    13    14    1
    53    19    18   ar
    54    19    26    1
    55    18    23    1
    56    23    24    3
    57    24    25    1
