@<TRIPOS>MOLECULE
mol_data/noopt/geoms/mol2/13ll13ii(240)6il(120)4fi(20).out
 62 65 0 0 0
SMALL
GASTEIGER

@<TRIPOS>ATOM
      1 C           1.1215   -0.3259    0.0002 C.ar    1  LIG1        0.0482
      2 C           0.7176    0.9721   -0.0005 C.ar    1  LIG1        0.1795
      3 C          -0.7144    0.9744    0.0003 C.ar    1  LIG1        0.1883
      4 C          -1.1226   -0.3223   -0.0003 C.ar    1  LIG1        0.1091
      5 N          -0.0018   -1.1217    0.0001 N.ar    1  LIG1       -0.3535
      6 H          -0.0034   -2.1157   -0.0003 H       1  LIG1        0.1656
      7 H           2.3167   -0.8373    0.0007 H       1  LIG1        0.0845
      8 O           1.4918    2.0165   -0.0003 O.3     1  LIG1       -0.4900
      9 C           2.8590    1.5971   -0.0003 C.3     1  LIG1        0.0790
     10 H           3.4958    2.4569   -0.0003 H       1  LIG1        0.0660
     11 H           3.0520    1.0102    0.8734 H       1  LIG1        0.0660
     12 H           3.0520    1.0102   -0.8739 H       1  LIG1        0.0660
     13 O          -1.4853    2.0212    0.0010 O.3     1  LIG1       -0.4895
     14 C          -0.6829    3.2049    0.0012 C.3     1  LIG1        0.0791
     15 H          -1.3178    4.0662    0.0016 H       1  LIG1        0.0660
     16 H          -0.0650    3.2168    0.8747 H       1  LIG1        0.0660
     17 H          -0.0654    3.2174   -0.8726 H       1  LIG1        0.0660
     18 C          -2.3194   -0.8299   -0.0001 C.ar    1  LIG1        0.0703
     19 C          -2.9166   -1.6810   -0.8759 C.ar    1  LIG1       -0.0201
     20 C          -4.2463   -1.9196   -0.4011 C.ar    1  LIG1       -0.0216
     21 C          -4.4027   -1.2053    0.7449 C.ar    1  LIG1        0.0520
     22 N          -3.2255   -0.5363    0.9938 N.ar    1  LIG1       -0.3525
     23 H          -3.0565    0.0631    1.7686 H       1  LIG1        0.1660
     24 C          -2.3770   -2.1826   -1.9473 C.3     1  LIG1       -0.0374
     25 H          -1.3297   -1.9634   -1.9554 H       1  LIG1        0.0278
     26 H          -2.8378   -1.7542   -2.8129 H       1  LIG1        0.0278
     27 H          -2.5195   -3.2431   -1.9554 H       1  LIG1        0.0278
     28 C          -5.1417   -2.6791   -0.9599 C.3     1  LIG1       -0.0374
     29 H          -4.9875   -3.6939   -0.6577 H       1  LIG1        0.0278
     30 H          -5.0567   -2.6071   -2.0241 H       1  LIG1        0.0278
     31 H          -6.1178   -2.3614   -0.6577 H       1  LIG1        0.0278
     32 C          -6.5614   -0.3676    1.1406 C.ar    1  LIG1        0.0482
     33 C          -5.4265   -1.0976    1.5387 C.ar    1  LIG1        0.0231
     34 C          -5.4288   -1.6988    2.7987 C.ar    1  LIG1       -0.0070
     35 C          -6.5543   -1.5519    3.6113 C.ar    1  LIG1        0.1467
     36 C          -7.6408   -0.8023    3.1245 C.ar    1  LIG1        0.1163
     37 N          -7.6556   -0.2157    1.9116 N.ar    1  LIG1       -0.2474
     38 H          -4.5598   -2.2762    3.1447 H       1  LIG1        0.0662
     39 C          -6.6067    0.2102   -0.0234 C.3     1  LIG1       -0.0217
     40 H          -7.5253    0.7507   -0.1179 H       1  LIG1        0.0293
     41 H          -6.5486   -0.5316   -0.7924 H       1  LIG1        0.0293
     42 H          -5.7833    0.8870   -0.1178 H       1  LIG1        0.0293
     43 O          -6.6054   -2.0921    4.7927 O.3     1  LIG1       -0.4929
     44 C          -7.9661   -2.1636    5.2264 C.3     1  LIG1        0.0789
     45 H          -8.0078   -2.6084    6.1987 H       1  LIG1        0.0660
     46 H          -8.3797   -1.1775    5.2673 H       1  LIG1        0.0660
     47 H          -8.5292   -2.7582    4.5378 H       1  LIG1        0.0660
     48 C          -8.8851    0.5517    4.5814 C.ar    1  LIG1        0.1261
     49 C         -10.0606    0.6815    5.3460 C.ar    1  LIG1       -0.0193
     50 C          -8.7109   -0.6372    3.8439 C.ar    1  LIG1        0.0456
     51 C         -11.0218   -0.3263    5.3760 C.ar    1  LIG1       -0.0554
     52 H         -10.2149    1.5907    5.9228 H       1  LIG1        0.0654
     53 C          -9.6703   -1.6437    3.8734 C.ar    1  LIG1       -0.0460
     54 C         -10.8316   -1.4958    4.6388 C.ar    1  LIG1       -0.0496
     55 H          -9.5128   -2.5512    3.2961 H       1  LIG1        0.0628
     56 H         -12.0955   -0.1731    6.0928 H       1  LIG1        0.0621
     57 O          -8.0249    1.5264    4.5931 O.3     1  LIG1       -0.5061
     58 H          -8.4914    2.3654    4.5960 H       1  LIG1        0.2922
     59 C         -11.7250   -2.4403    4.6627 C.3     1  LIG1       -0.0397
     60 H         -11.3290   -3.2930    5.1737 H       1  LIG1        0.0278
     61 H         -11.9828   -2.7129    3.6606 H       1  LIG1        0.0278
     62 H         -12.5984   -2.0922    5.1736 H       1  LIG1        0.0278
@<TRIPOS>BOND
     1    26    24    1
     2    30    28    1
     3    25    24    1
     4    27    24    1
     5    24    19    1
     6    28    31    1
     7    28    29    1
     8    28    20    1
     9    19    20   ar
    10    19    18   ar
    11    12     9    1
    12    17    14    1
    13    41    39    1
    14    20    21   ar
    15    40    39    1
    16    42    39    1
    17    39    32    1
    18     2     8    1
    19     2     1   ar
    20     2     3   ar
    21    10     9    1
    22     9     8    1
    23     9    11    1
    24     6     5    1
    25     4    18    1
    26     4     5   ar
    27     4     3   ar
    28    18    22   ar
    29     5     1   ar
    30     1     7    1
    31     3    13    1
    32    13    14    1
    33    14    15    1
    34    14    16    1
    35    21    22   ar
    36    21    33    1
    37    22    23    1
    38    32    33   ar
    39    32    37   ar
    40    33    34   ar
    41    37    36   ar
    42    34    38    1
    43    34    35   ar
    44    36    35   ar
    45    36    50    1
    46    55    53    1
    47    35    43    1
    48    61    59    1
    49    50    53   ar
    50    50    48   ar
    51    53    54   ar
    52    47    44    1
    53    48    57    1
    54    48    49   ar
    55    57    58    1
    56    54    59    1
    57    54    51   ar
    58    59    62    1
    59    59    60    1
    60    43    44    1
    61    44    46    1
    62    44    45    1
    63    49    51   ar
    64    49    52    1
    65    51    56    1
