@<TRIPOS>MOLECULE
mol_data/noopt/geoms/mol2/13ll6ie(140)13hh(310)4hf(140).out
 57 60 0 0 0
SMALL
GASTEIGER

@<TRIPOS>ATOM
      1 C           1.1215   -0.3259    0.0002 C.ar    1  LIG1        0.0481
      2 C           0.7176    0.9721   -0.0005 C.ar    1  LIG1        0.1794
      3 C          -0.7144    0.9744    0.0003 C.ar    1  LIG1        0.1869
      4 C          -1.1226   -0.3223   -0.0003 C.ar    1  LIG1        0.0942
      5 N          -0.0018   -1.1217    0.0001 N.ar    1  LIG1       -0.3546
      6 H          -0.0034   -2.1157   -0.0003 H       1  LIG1        0.1656
      7 H           2.3167   -0.8373    0.0007 H       1  LIG1        0.0845
      8 O           1.4918    2.0165   -0.0003 O.3     1  LIG1       -0.4900
      9 C           2.8590    1.5971   -0.0003 C.3     1  LIG1        0.0790
     10 H           3.4958    2.4569   -0.0003 H       1  LIG1        0.0660
     11 H           3.0520    1.0102    0.8734 H       1  LIG1        0.0660
     12 H           3.0520    1.0102   -0.8739 H       1  LIG1        0.0660
     13 O          -1.4853    2.0212    0.0010 O.3     1  LIG1       -0.4895
     14 C          -0.6829    3.2049    0.0012 C.3     1  LIG1        0.0791
     15 H          -1.3178    4.0662    0.0016 H       1  LIG1        0.0660
     16 H          -0.0650    3.2168    0.8747 H       1  LIG1        0.0660
     17 H          -0.0654    3.2174   -0.8726 H       1  LIG1        0.0660
     18 C          -3.3374   -0.2513   -0.7800 C.ar    1  LIG1        0.0482
     19 C          -2.3194   -0.8299   -0.0001 C.ar    1  LIG1        0.0242
     20 C          -2.6257   -1.9549    0.7678 C.ar    1  LIG1       -0.0333
     21 C          -3.9268   -2.4594    0.7313 C.ar    1  LIG1        0.0527
     22 C          -4.8760   -1.8109   -0.0797 C.ar    1  LIG1        0.1046
     23 N          -4.5977   -0.7249   -0.8270 N.ar    1  LIG1       -0.2485
     24 H          -1.8566   -2.4336    1.3904 H       1  LIG1        0.0637
     25 C          -3.1009    0.7972   -1.5118 C.3     1  LIG1       -0.0217
     26 H          -3.8257    1.5540   -1.2956 H       1  LIG1        0.0293
     27 H          -3.1610    0.5309   -2.5465 H       1  LIG1        0.0293
     28 H          -2.1213    1.1694   -1.2957 H       1  LIG1        0.0293
     29 C          -4.2621   -3.5044    1.4282 C.1     1  LIG1       -0.0674
     30 C          -4.5720   -4.4699    2.0721 C.1     1  LIG1       -0.1138
     31 H          -4.8480   -5.3300    2.6457 H       1  LIG1        0.1232
     32 C          -6.1002   -2.2431   -0.1470 C.ar    1  LIG1        0.0894
     33 C          -7.1254   -1.8661   -0.9562 C.ar    1  LIG1        0.0733
     34 C          -8.2608   -2.6669   -0.6093 C.ar    1  LIG1        0.0719
     35 C          -7.8789   -3.4993    0.3954 C.ar    1  LIG1        0.0716
     36 N          -6.5571   -3.2428    0.6819 N.ar    1  LIG1       -0.3499
     37 H          -6.0179   -3.7064    1.3765 H       1  LIG1        0.1661
     38 N          -7.0802   -0.9463   -1.8738 N.pl3   1  LIG1       -0.3548
     39 H          -6.2694   -1.0830   -2.4430 H       1  LIG1        0.1424
     40 H          -7.9004   -1.0027   -2.4430 H       1  LIG1        0.1424
     41 N          -9.4404   -2.6115   -1.1529 N.pl3   1  LIG1       -0.3549
     42 H          -9.5076   -1.7909   -1.7205 H       1  LIG1        0.1424
     43 H          -9.5843   -3.4221   -1.7205 H       1  LIG1        0.1424
     44 C          -7.9287   -5.1403    2.0713 C.ar    1  LIG1        0.0340
     45 C          -8.6987   -6.1121    2.7392 C.ar    1  LIG1       -0.0370
     46 C          -8.5507   -4.4059    1.0410 C.ar    1  LIG1        0.0242
     47 C         -10.0294   -6.3437    2.3984 C.ar    1  LIG1       -0.0184
     48 H          -8.2383   -6.6903    3.5373 H       1  LIG1        0.0637
     49 C          -9.8791   -4.6367    0.7003 C.ar    1  LIG1       -0.0092
     50 C         -10.6276   -5.6062    1.3759 C.ar    1  LIG1        0.1176
     51 H         -10.3361   -4.0573   -0.0979 H       1  LIG1        0.0661
     52 H         -10.7109   -7.2486    3.0360 H       1  LIG1        0.0655
     53 N          -6.6921   -4.9695    2.4343 N.pl3   1  LIG1       -0.3575
     54 H          -6.1330   -5.7166    2.0747 H       1  LIG1        0.1423
     55 H          -6.3564   -4.0989    2.0747 H       1  LIG1        0.1423
     56 O         -11.8690   -5.8177    1.0530 O.3     1  LIG1       -0.5067
     57 H         -12.0230   -6.7619    0.9734 H       1  LIG1        0.2921
@<TRIPOS>BOND
     1    27    25    1
     2    40    38    1
     3    39    38    1
     4    38    33    1
     5    43    41    1
     6    42    41    1
     7    25    28    1
     8    25    26    1
     9    25    18    1
    10    41    34    1
    11    33    34   ar
    12    33    32   ar
    13    12     9    1
    14    17    14    1
    15    23    18   ar
    16    23    22   ar
    17    18    19   ar
    18    34    35   ar
    19    32    22    1
    20    32    36   ar
    21    51    49    1
    22    22    21   ar
    23     2     8    1
    24     2     1   ar
    25     2     3   ar
    26    10     9    1
    27     4    19    1
    28     4     5   ar
    29     4     3   ar
    30     6     5    1
    31     8     9    1
    32     9    11    1
    33    19    20   ar
    34     5     1   ar
    35     1     7    1
    36     3    13    1
    37    13    14    1
    38    14    15    1
    39    14    16    1
    40    35    36   ar
    41    35    46    1
    42    36    37    1
    43    49    46   ar
    44    49    50   ar
    45    21    20   ar
    46    21    29    1
    47    20    24    1
    48    57    56    1
    49    46    44   ar
    50    56    50    1
    51    50    47   ar
    52    29    30    3
    53    44    53    1
    54    44    45   ar
    55    30    31    1
    56    55    53    1
    57    54    53    1
    58    47    45   ar
    59    47    52    1
    60    45    48    1
