@<TRIPOS>MOLECULE
mol_data/noopt/geoms/mol2/13ll4ah-12le4di4aa12ea-4dd-4if.out
 102 109 0 0 0
SMALL
GASTEIGER

@<TRIPOS>ATOM
      1 C           1.1215   -0.3259    0.0002 C.ar    1  LIG1        0.0481
      2 C           0.7176    0.9721   -0.0005 C.ar    1  LIG1        0.1794
      3 C          -0.7144    0.9744    0.0003 C.ar    1  LIG1        0.1868
      4 C          -1.1226   -0.3223   -0.0003 C.ar    1  LIG1        0.0925
      5 N          -0.0018   -1.1217    0.0001 N.ar    1  LIG1       -0.3546
      6 H          -0.0034   -2.1157   -0.0003 H       1  LIG1        0.1656
      7 H           2.3167   -0.8373    0.0007 H       1  LIG1        0.0845
      8 O           1.4918    2.0165   -0.0003 O.3     1  LIG1       -0.4900
      9 C           2.8590    1.5971   -0.0003 C.3     1  LIG1        0.0790
     10 H           3.4958    2.4569   -0.0003 H       1  LIG1        0.0660
     11 H           3.0520    1.0102    0.8734 H       1  LIG1        0.0660
     12 H           3.0520    1.0102   -0.8739 H       1  LIG1        0.0660
     13 O          -1.4853    2.0212    0.0010 O.3     1  LIG1       -0.4895
     14 C          -0.6829    3.2049    0.0012 C.3     1  LIG1        0.0791
     15 H          -1.3178    4.0662    0.0016 H       1  LIG1        0.0660
     16 H          -0.0650    3.2168    0.8747 H       1  LIG1        0.0660
     17 H          -0.0654    3.2174   -0.8726 H       1  LIG1        0.0660
     18 C          -3.4433    0.0211    0.0221 C.ar    1  LIG1       -0.0440
     19 C          -4.7179   -0.5778    0.0229 C.ar    1  LIG1       -0.0040
     20 C          -2.3194   -0.8299   -0.0001 C.ar    1  LIG1        0.0043
     21 C          -4.8691   -1.9625    0.0019 C.ar    1  LIG1        0.0489
     22 H          -5.5986    0.0603    0.0400 H       1  LIG1        0.0194
     23 C          -2.4698   -2.2123   -0.0211 C.ar    1  LIG1       -0.0311
     24 C          -3.7445   -2.7882   -0.0203 C.ar    1  LIG1        0.0366
     25 H          -1.5876   -2.8471   -0.0379 H       1  LIG1        0.0643
     26 H          -3.3660    1.3186    0.0420 H       1  LIG1        0.0630
     27 N          -3.8789   -4.0811   -0.0398 N.pl3   1  LIG1       -0.3574
     28 H          -4.7248   -4.3211   -0.5161 H       1  LIG1        0.1423
     29 H          -3.1006   -4.4900   -0.5162 H       1  LIG1        0.1423
     30 C          -6.0610   -2.4817    0.0032 C.2     1  LIG1        0.1795
     31 C          -7.3488   -1.9876    0.0190 C.2     1  LIG1        0.2360
     32 C          -8.2332   -3.1342    0.0095 C.2     1  LIG1        0.0984
     33 C          -7.4266   -4.2535   -0.0115 C.3     1  LIG1        0.2199
     34 O          -6.0831   -3.8770   -0.0159 O.2     1  LIG1       -0.4663
     35 O          -7.7233   -0.7428    0.0386 O.2     1  LIG1       -0.2829
     36 C          -6.5700    0.1025    0.0458 C.3     2  LIG2       -0.0776
     37 H          -6.8786    1.1269    0.0618 H       1  LIG1        0.0194
     38 H          -5.9803   -0.1059    0.9140 H       1  LIG1        0.0194
     39 H          -5.9879   -0.0808   -0.8331 H       1  LIG1        0.0194
     40 C          -9.5324   -3.0891    0.0192 C.1     1  LIG1       -0.0912
     41 C         -10.7328   -3.0475    0.0282 C.2     1  LIG1        0.0550
     42 H         -11.8021   -3.0103    0.0362 H       1  LIG1        0.0888
     43 C          -8.9406   -6.0454   -0.0355 C.ar    1  LIG1       -0.0093
     44 C          -9.1026   -7.4443   -0.0515 C.ar    1  LIG1       -0.0479
     45 C          -7.6252   -5.5380   -0.0276 C.ar    1  LIG1        0.0113
     46 C          -8.0049   -8.3019   -0.0598 C.ar    1  LIG1       -0.0146
     47 H         -10.1090   -7.8570   -0.0576 H       1  LIG1        0.0627
     48 C          -6.5290   -6.3938   -0.0359 C.ar    1  LIG1       -0.0505
     49 C          -6.7105   -7.7806   -0.0521 C.ar    1  LIG1       -0.0423
     50 H          -5.5246   -5.9781   -0.0294 H       1  LIG1        0.0625
     51 N         -10.9404   -4.6360   -0.0227 N.pl3   1  LIG1       -0.2336
     52 C         -10.0032   -5.2965   -0.0287 C.3     1  LIG1        0.1377
     53 C          -5.6817   -8.5758   -0.0596 C.3     1  LIG1       -0.0391
     54 H          -4.8629   -8.1045    0.4428 H       1  LIG1        0.0278
     55 H          -5.4041   -8.7903   -1.0705 H       1  LIG1        0.0278
     56 H          -5.9316   -9.4870    0.4427 H       1  LIG1        0.0278
     57 C          -9.5014  -10.1085   -0.0818 C.ar    1  LIG1       -0.0534
     58 C          -9.6499  -11.5089   -0.0963 C.ar    1  LIG1       -0.0505
     59 C          -8.1910   -9.5884   -0.0746 C.ar    1  LIG1       -0.0176
     60 C          -8.5439  -12.3559   -0.1039 C.ar    1  LIG1        0.0185
     61 H         -10.6522  -11.9314   -0.1019 H       1  LIG1        0.0625
     62 C          -7.0865  -10.4335   -0.0822 C.ar    1  LIG1       -0.0534
     63 C          -7.2546  -11.8220   -0.0970 C.ar    1  LIG1       -0.0505
     64 H          -6.0862  -10.0081   -0.0762 H       1  LIG1        0.0624
     65 H         -10.5712   -9.3700   -0.0755 H       1  LIG1        0.0624
     66 H          -6.2184  -12.6070   -0.1039 H       1  LIG1        0.0625
     67 C          -8.7175  -13.6441   -0.1174 C.ar    1  LIG1        0.1510
     68 C          -9.8076  -14.4896   -0.1129 C.ar    1  LIG1        0.0709
     69 C          -9.2852  -15.8400   -0.1367 C.ar    1  LIG1        0.0003
     70 C          -7.9100  -15.7300   -0.1544 C.ar    1  LIG1        0.1382
     71 O          -7.5357  -14.3860   -0.1431 O.2     1  LIG1       -0.4535
     72 C         -11.0662  -14.1650   -0.0914 C.1     1  LIG1       -0.0658
     73 C         -12.2292  -13.8650   -0.0716 C.1     1  LIG1       -0.1138
     74 H         -13.2651  -13.5978   -0.0540 H       1  LIG1        0.1232
     75 H          -9.9971  -16.9277   -0.1404 H       1  LIG1        0.0668
     76 C          -7.1615  -17.9534   -0.1693 C.ar    1  LIG1        0.0631
     77 C          -6.0491  -18.8167   -0.1947 C.ar    1  LIG1       -0.0347
     78 C          -6.9143  -16.5654   -0.1784 C.ar    1  LIG1        0.0359
     79 C          -4.7473  -18.3221   -0.2284 C.ar    1  LIG1        0.0011
     80 H          -6.2173  -19.8913   -0.1881 H       1  LIG1        0.0637
     81 C          -5.6149  -16.0711   -0.2120 C.ar    1  LIG1       -0.0319
     82 C          -4.5229  -16.9448   -0.2373 C.ar    1  LIG1        0.0602
     83 H          -5.4502  -14.9966   -0.2183 H       1  LIG1        0.0638
     84 N          -9.4024  -18.9338   -0.1116 N.1     1  LIG1       -0.1908
     85 C          -8.3522  -18.4744   -0.1386 C.1     1  LIG1        0.0999
     86 N          -2.2410  -16.0642   -0.2960 N.1     1  LIG1       -0.1908
     87 C          -3.3104  -16.4769   -0.2685 C.1     1  LIG1        0.0998
     88 C          -3.9776  -20.5380   -0.2630 C.ar    1  LIG1       -0.0425
     89 C          -2.8569  -21.3904   -0.2863 C.ar    1  LIG1       -0.0548
     90 C          -3.7435  -19.1477   -0.2513 C.ar    1  LIG1       -0.0103
     91 C          -1.5595  -20.8833   -0.2981 C.ar    1  LIG1       -0.0199
     92 H          -3.0149  -22.4666   -0.2954 H       1  LIG1        0.0622
     93 C          -2.4485  -18.6409   -0.2632 C.ar    1  LIG1       -0.0122
     94 C          -1.3480  -19.5040   -0.2867 C.ar    1  LIG1        0.1175
     95 H          -2.2940  -17.5649   -0.2537 H       1  LIG1        0.0660
     96 H          -0.5476  -21.6992   -0.3198 H       1  LIG1        0.0654
     97 C          -5.1639  -21.0705   -0.2531 C.3     1  LIG1       -0.0391
     98 H          -5.1280  -22.0120    0.2540 H       1  LIG1        0.0278
     99 H          -5.4962  -21.2197   -1.2592 H       1  LIG1        0.0278
    100 H          -5.8435  -20.4179    0.2540 H       1  LIG1        0.0278
    101 O          -0.1397  -19.0245   -0.2975 O.3     1  LIG1       -0.5067
    102 H          -0.1758  -18.0651   -0.3002 H       1  LIG1        0.2921
@<TRIPOS>BOND
     1    99    97    1
     2    55    53    1
     3    12     9    1
     4    17    14    1
     5    39    36    1
     6    29    27    1
     7    28    27    1
     8    96    91    1
     9   102   101    1
    10    91    94   ar
    11    91    89   ar
    12   101    94    1
    13    86    87    3
    14    92    89    1
    15    94    93   ar
    16    89    88   ar
    17    87    82    1
    18    93    95    1
    19    93    90   ar
    20    88    97    1
    21    88    90   ar
    22    97   100    1
    23    97    98    1
    24    90    79    1
    25    82    79   ar
    26    82    81   ar
    27    79    77   ar
    28    83    81    1
    29    81    78   ar
    30    77    80    1
    31    77    76   ar
    32    78    76   ar
    33    78    70    1
    34    76    85    1
    35    70    71   ar
    36    70    69   ar
    37    71    67   ar
    38    75    69    1
    39    85    84    3
    40    69    68   ar
    41    67    68   ar
    42    67    60    1
    43    68    72    1
    44    60    63   ar
    45    60    58   ar
    46    66    63    1
    47    61    58    1
    48    63    62   ar
    49    58    57   ar
    50    72    73    3
    51    62    64    1
    52    62    59   ar
    53    57    65    1
    54    57    59   ar
    55    59    46    1
    56    73    74    1
    57    46    49   ar
    58    46    44   ar
    59    53    49    1
    60    53    56    1
    61    53    54    1
    62    47    44    1
    63    49    48   ar
    64    44    43   ar
    65    27    24    1
    66    25    23    1
    67    48    50    1
    68    48    45   ar
    69    43    52    1
    70    43    45   ar
    71    52    51    1
    72    45    33    1
    73    51    41    1
    74    23    24   ar
    75    23    20   ar
    76    24    21   ar
    77    34    33    1
    78    34    30    1
    79    33    32    1
    80     2     8    1
    81     2     1   ar
    82     2     3   ar
    83     8     9    1
    84     6     5    1
    85     4    20    1
    86     4     5   ar
    87     4     3   ar
    88     9    10    1
    89     9    11    1
    90    20    18   ar
    91     5     1   ar
    92     1     7    1
    93     3    13    1
    94    13    14    1
    95    14    15    1
    96    14    16    1
    97    21    30    1
    98    21    19   ar
    99    30    31    2
   100    32    31    1
   101    32    40    2
   102    31    35    1
   103    40    41    2
   104    18    19   ar
   105    18    26    1
   106    41    42    1
   107    22    36    1
   108    36    37    1
   109    36    38    1
