@<TRIPOS>MOLECULE
mol_data/noopt/geoms/mol2/13ll6ea13ha-13el-12ef-13ae-6hi4hl.out
 103 108 0 0 0
SMALL
GASTEIGER

@<TRIPOS>ATOM
      1 C           1.1215   -0.3259    0.0002 C.ar    1  LIG1        0.1130
      2 C           0.7176    0.9721   -0.0005 C.ar    1  LIG1        0.1891
      3 C          -0.7144    0.9744    0.0003 C.ar    1  LIG1        0.1876
      4 C          -1.1226   -0.3223   -0.0003 C.ar    1  LIG1        0.0956
      5 N          -0.0018   -1.1217    0.0001 N.ar    1  LIG1       -0.3470
      6 H          -0.0034   -2.1157   -0.0003 H       1  LIG1        0.1662
      7 H           2.3167   -0.8373    0.0007 H       2  LIG2        0.0194
      8 O           1.4918    2.0165   -0.0003 O.3     1  LIG1       -0.4895
      9 C           2.8590    1.5971   -0.0003 C.3     1  LIG1        0.0791
     10 H           3.4958    2.4569   -0.0003 H       1  LIG1        0.0660
     11 H           3.0520    1.0102    0.8734 H       1  LIG1        0.0660
     12 H           3.0520    1.0102   -0.8739 H       1  LIG1        0.0660
     13 O          -1.4853    2.0212    0.0010 O.3     1  LIG1       -0.4895
     14 C          -0.6829    3.2049    0.0012 C.3     1  LIG1        0.0791
     15 H          -1.3178    4.0662    0.0016 H       1  LIG1        0.0660
     16 H          -0.0650    3.2168    0.8747 H       1  LIG1        0.0660
     17 H          -0.0654    3.2174   -0.8726 H       1  LIG1        0.0660
     18 C          -2.5001   -2.2252    0.0002 C.ar    1  LIG1        0.1231
     19 C          -2.3194   -0.8299   -0.0001 C.ar    1  LIG1        0.0359
     20 C          -3.4502   -0.0112    0.0002 C.ar    1  LIG1       -0.0478
     21 C          -4.7120   -0.6082    0.0005 C.ar    1  LIG1       -0.0335
     22 C          -4.7903   -2.0130    0.0006 C.ar    1  LIG1        0.0903
     23 N          -3.7098   -2.8179    0.0005 N.ar    1  LIG1       -0.2362
     24 H          -3.3485    1.0833   -0.0010 H       1  LIG1        0.0626
     25 C          -1.4781   -3.0286    0.0000 C.1     1  LIG1       -0.0491
     26 C          -0.5338   -3.7711   -0.0001 C.1     1  LIG1       -0.1124
     27 H           0.3073   -4.4324   -0.0002 H       1  LIG1        0.1232
     28 H          -5.7954    0.1103    0.0006 H       1  LIG1        0.0640
     29 C          -5.9423   -2.6153    0.0010 C.ar    1  LIG1        0.0864
     30 C          -7.2032   -2.1073    0.0009 C.ar    1  LIG1        0.0523
     31 C          -8.1107   -3.2150    0.0026 C.ar    1  LIG1       -0.0136
     32 C          -7.3644   -4.3513    0.0019 C.ar    1  LIG1        0.0665
     33 N          -6.0364   -3.9887    0.0013 N.ar    1  LIG1       -0.3503
     34 H          -5.2674   -4.6186    0.0007 H       1  LIG1        0.1660
     35 N          -7.5225   -0.8471    0.0009 N.pl3   1  LIG1       -0.3563
     36 H          -6.8128   -0.3234   -0.4706 H       1  LIG1        0.1424
     37 H          -8.3958   -0.7245   -0.4706 H       1  LIG1        0.1424
     38 H          -9.4091   -3.1501    0.0040 H       1  LIG1        0.0658
     39 C          -7.7282   -5.5994    0.0027 C.ar    1  LIG1        0.0827
     40 C          -8.9679   -6.1567    0.0195 C.ar    1  LIG1        0.0936
     41 C          -8.7978   -7.5786    0.0126 C.ar    1  LIG1        0.1643
     42 C          -7.4616   -7.8276   -0.0098 C.ar    1  LIG1        0.1274
     43 N          -6.8030   -6.6187   -0.0155 N.ar    1  LIG1       -0.3466
     44 H          -5.8162   -6.5005   -0.0310 H       1  LIG1        0.1662
     45 C         -10.0977   -5.5139    0.0397 C.1     1  LIG1       -0.0638
     46 C         -11.1417   -4.9200    0.0584 C.1     1  LIG1       -0.1137
     47 H         -12.0716   -4.3910    0.0750 H       1  LIG1        0.1232
     48 O          -9.7441   -8.4699    0.0251 O.3     1  LIG1       -0.4916
     49 C         -11.0158   -7.8160    0.0295 C.3     1  LIG1        0.0789
     50 H         -11.7943   -8.5500    0.0396 H       1  LIG1        0.0660
     51 H         -11.0964   -7.1987    0.8999 H       1  LIG1        0.0660
     52 H         -11.1083   -7.2099   -0.8474 H       1  LIG1        0.0660
     53 C          -6.8137   -8.9545   -0.0238 C.ar    1  LIG1        0.1745
     54 C          -7.1623  -10.2892   -0.0343 C.ar    1  LIG1        0.1141
     55 C          -5.9247  -11.0410   -0.0479 C.ar    1  LIG1        0.1805
     56 C          -4.9015  -10.1155   -0.0449 C.ar    1  LIG1        0.1943
     57 O          -5.4244   -8.8219   -0.0301 O.2     1  LIG1       -0.4467
     58 C          -8.3580  -10.7993   -0.0326 C.1     1  LIG1       -0.0621
     59 C          -9.4629  -11.2706   -0.0309 C.1     1  LIG1       -0.1137
     60 H         -10.4471  -11.6905   -0.0295 H       1  LIG1        0.1232
     61 O          -5.8258  -12.3373   -0.0605 O.3     1  LIG1       -0.5023
     62 H          -4.8991  -12.5879   -0.0636 H       1  LIG1        0.2923
     63 C          -3.6027  -10.1705   -0.0523 C.ar    1  LIG1        0.0875
     64 C          -2.7653  -11.2413   -0.0411 C.ar    1  LIG1       -0.0172
     65 C          -1.4253  -10.7364   -0.0564 C.ar    1  LIG1        0.0507
     66 C          -1.5029   -9.3793   -0.0780 C.ar    1  LIG1        0.0659
     67 N          -2.8341   -9.0286   -0.0751 N.ar    1  LIG1       -0.3506
     68 H          -3.1847   -8.0986   -0.0881 H       1  LIG1        0.1660
     69 H          -3.1194  -12.4919   -0.0190 H       1  LIG1        0.0652
     70 C          -0.3337  -11.4423   -0.0511 C.1     1  LIG1       -0.0675
     71 C           0.6750  -12.0945   -0.0462 C.1     1  LIG1       -0.1138
     72 H           1.5735  -12.6755   -0.0418 H       1  LIG1        0.1232
     73 C          -0.8886   -7.1122   -0.1082 C.ar    1  LIG1        0.1261
     74 C          -0.5635   -8.4809   -0.0976 C.ar    1  LIG1        0.0396
     75 C           0.7839   -8.8462   -0.1084 C.ar    1  LIG1       -0.0395
     76 C           1.7525   -7.8412   -0.1294 C.ar    1  LIG1        0.0110
     77 C           1.3282   -6.4998   -0.1388 C.ar    1  LIG1        0.0827
     78 N           0.0328   -6.1296   -0.1285 N.ar    1  LIG1       -0.2311
     79 H           1.0764   -9.9058   -0.1016 H       1  LIG1        0.0632
     80 N          -2.1288   -6.7225   -0.0988 N.pl3   1  LIG1       -0.3426
     81 H          -2.2053   -5.8427   -0.5678 H       1  LIG1        0.1437
     82 H          -2.6948   -7.4005   -0.5678 H       1  LIG1        0.1437
     83 C           3.0204   -8.1297   -0.1403 C.3     2  LIG2       -0.0681
     84 H           3.5661   -7.3578    0.3612 H       1  LIG1        0.1423
     85 H           3.3599   -8.2068   -1.1521 H       1  LIG1        0.0227
     86 H           3.1784   -9.0616    0.3611 H       1  LIG1        0.0227
     87 C           3.5723   -5.8164   -0.1680 C.ar    1  LIG1        0.0341
     88 C           4.4676   -4.7295   -0.1875 C.ar    1  LIG1       -0.0368
     89 C           2.1922   -5.5287   -0.1582 C.ar    1  LIG1        0.0252
     90 C           4.0110   -3.4134   -0.1975 C.ar    1  LIG1       -0.0132
     91 H           5.5368   -4.9290   -0.1950 H       1  LIG1        0.0637
     92 C           1.7358   -4.2150   -0.1682 C.ar    1  LIG1       -0.0040
     93 C           2.6410   -3.1487   -0.1880 C.ar    1  LIG1        0.1797
     94 H           0.6667   -4.0190   -0.1603 H       1  LIG1        0.0663
     95 H           4.8656   -2.4339   -0.2156 H       1  LIG1        0.0656
     96 N           4.0584   -7.0222   -0.1597 N.pl3   1  LIG1       -0.3575
     97 H           3.4268   -7.6393   -0.6289 H       1  LIG1        0.0227
     98 H           4.9414   -7.0288   -0.6290 H       1  LIG1        0.1423
     99 O           2.2085   -1.9228   -0.1971 O.3     1  LIG1       -0.2879
    100 C           3.3211   -1.0243   -0.2005 C.3     3  LIG3       -0.0776
    101 H           2.9647   -0.0154   -0.2082 H       2  LIG2        0.0194
    102 H           3.9134   -1.1867    0.6757 H       2  LIG2        0.0194
    103 H           3.9175   -1.1985   -1.0715 H       2  LIG2        0.0194
@<TRIPOS>BOND
     1    85    83    1
     2   103   100    1
     3    12     9    1
     4    17    14    1
     5    52    49    1
     6    98    96    1
     7    97    83    1
     8    82    80    1
     9    81    80    1
    10    37    35    1
    11    36    35    1
    12    95    90    1
    13   101   100    1
    14   100     7    1
    15   100   102    1
    16    90    93   ar
    17    90    88   ar
    18    99    93    1
    19    91    88    1
    20    93    92   ar
    21    88    87   ar
    22    92    94    1
    23    92    89   ar
    24    87    96    1
    25    87    89   ar
    26    96    84    1
    27    89    77    1
    28    83    86    1
    29    77    76   ar
    30    77    78   ar
    31    76    75   ar
    32    78    73   ar
    33    75    79    1
    34    75    74   ar
    35    73    80    1
    36    73    74   ar
    37    74    66    1
    38    68    67    1
    39    66    67   ar
    40    66    65   ar
    41    67    63   ar
    42    62    61    1
    43    61    55    1
    44    65    70    1
    45    65    64   ar
    46    63    56    1
    47    63    64   ar
    48    70    71    3
    49    55    56   ar
    50    55    54   ar
    51    71    72    1
    52    56    57   ar
    53    64    69    1
    54    54    58    1
    55    54    53   ar
    56    58    59    3
    57    44    43    1
    58    59    60    1
    59    57    53   ar
    60    53    42    1
    61    43    42   ar
    62    43    39   ar
    63    42    41   ar
    64    24    20    1
    65     2     8    1
    66     2     1   ar
    67     2     3   ar
    68     6     5    1
    69     8     9    1
    70     9    10    1
    71     9    11    1
    72     4    19    1
    73     4     5   ar
    74     4     3   ar
    75    27    26    1
    76    19    18   ar
    77    19    20   ar
    78    26    25    3
    79    25    18    1
    80     5     1   ar
    81    18    23   ar
    82    20    21   ar
    83     3    13    1
    84    23    22   ar
    85    21    22   ar
    86    21    28    1
    87    22    29    1
    88    34    33    1
    89    35    30    1
    90    30    29   ar
    91    30    31   ar
    92    29    33   ar
    93    13    14    1
    94    14    15    1
    95    14    16    1
    96    33    32   ar
    97    32    31   ar
    98    32    39    1
    99    31    38    1
   100    39    40   ar
   101    41    40   ar
   102    41    48    1
   103    40    45    1
   104    48    49    1
   105    49    50    1
   106    49    51    1
   107    45    46    3
   108    46    47    1
