@<TRIPOS>MOLECULE
mol_data/noopt/geoms/mol2/13ll12hh(220)13df(160)13al(240).out
 51 54 0 0 0
SMALL
GASTEIGER

@<TRIPOS>ATOM
      1 C           1.1215   -0.3259    0.0002 C.ar    1  LIG1        0.0482
      2 C           0.7176    0.9721   -0.0005 C.ar    1  LIG1        0.1795
      3 C          -0.7144    0.9744    0.0003 C.ar    1  LIG1        0.1900
      4 C          -1.1226   -0.3223   -0.0003 C.ar    1  LIG1        0.1299
      5 N          -0.0018   -1.1217    0.0001 N.ar    1  LIG1       -0.3522
      6 H          -0.0034   -2.1157   -0.0003 H       1  LIG1        0.1656
      7 H           2.3167   -0.8373    0.0007 H       1  LIG1        0.0845
      8 O           1.4918    2.0165   -0.0003 O.3     1  LIG1       -0.4900
      9 C           2.8590    1.5971   -0.0003 C.3     1  LIG1        0.0790
     10 H           3.4958    2.4569   -0.0003 H       1  LIG1        0.0660
     11 H           3.0520    1.0102    0.8734 H       1  LIG1        0.0660
     12 H           3.0520    1.0102   -0.8739 H       1  LIG1        0.0660
     13 O          -1.4853    2.0212    0.0010 O.3     1  LIG1       -0.4894
     14 C          -0.6829    3.2049    0.0012 C.3     1  LIG1        0.0791
     15 H          -1.3178    4.0662    0.0016 H       1  LIG1        0.0660
     16 H          -0.0650    3.2168    0.8747 H       1  LIG1        0.0660
     17 H          -0.0654    3.2174   -0.8726 H       1  LIG1        0.0660
     18 C          -2.3194   -0.8299   -0.0001 C.ar    1  LIG1        0.1779
     19 C          -2.9204   -1.9316   -0.5729 C.ar    1  LIG1        0.0942
     20 C          -4.3080   -1.9091   -0.1593 C.ar    1  LIG1        0.0942
     21 C          -4.4628   -0.7947    0.6393 C.ar    1  LIG1        0.1756
     22 O          -3.2507   -0.1130    0.7526 O.2     1  LIG1       -0.4479
     23 N          -2.3728   -2.8291   -1.3376 N.pl3   1  LIG1       -0.3535
     24 H          -3.0738   -3.2478   -1.9148 H       1  LIG1        0.1425
     25 H          -1.6799   -2.3973   -1.9149 H       1  LIG1        0.1425
     26 N          -5.2117   -2.7828   -0.4909 N.pl3   1  LIG1       -0.3535
     27 H          -5.9245   -2.3361   -1.0318 H       1  LIG1        0.1425
     28 H          -4.7895   -3.5102   -1.0318 H       1  LIG1        0.1425
     29 C          -5.4483   -0.2511    1.2900 C.ar    1  LIG1        0.1057
     30 C          -6.4464   -0.8208    2.0163 C.ar    1  LIG1        0.1220
     31 C          -7.2670    0.2391    2.5203 C.ar    1  LIG1        0.1616
     32 C          -6.7333    1.4098    2.0814 C.ar    1  LIG1        0.1068
     33 N          -5.6200    1.1142    1.3274 N.ar    1  LIG1       -0.3466
     34 H          -5.0329    1.7809    0.8814 H       1  LIG1        0.1662
     35 N          -6.7756   -3.2166    2.3872 N.1     1  LIG1       -0.1907
     36 C          -6.6213   -2.0938    2.2133 C.1     1  LIG1        0.1051
     37 O          -8.3271    0.1096    3.2615 O.3     1  LIG1       -0.5034
     38 H          -8.4787   -0.8206    3.4442 H       1  LIG1        0.2923
     39 C          -7.1176    2.6367    2.2739 C.ar    1  LIG1        0.0701
     40 C          -7.9422    3.4283    1.5383 C.ar    1  LIG1        0.0069
     41 C          -8.0248    4.6941    2.2028 C.ar    1  LIG1        0.1379
     42 C          -7.2484    4.6197    3.3162 C.ar    1  LIG1        0.0444
     43 N          -6.6907    3.3620    3.3634 N.ar    1  LIG1       -0.3564
     44 H          -6.0777    3.0300    4.0719 H       1  LIG1        0.1655
     45 H          -7.0034    5.5066    4.2346 H       1  LIG1        0.0844
     46 H          -8.5423    3.0947    0.4344 H       1  LIG1        0.0676
     47 O          -8.7143    5.7262    1.8161 O.3     1  LIG1       -0.4936
     48 C          -7.8466    6.8539    1.6741 C.3     1  LIG1        0.0789
     49 H          -8.4144    7.7031    1.3556 H       1  LIG1        0.0660
     50 H          -7.3824    7.0675    2.6142 H       1  LIG1        0.0660
     51 H          -7.0936    6.6351    0.9461 H       1  LIG1        0.0660
@<TRIPOS>BOND
     1    25    23    1
     2    24    23    1
     3    23    19    1
     4    28    26    1
     5    27    26    1
     6    12     9    1
     7    17    14    1
     8    19    20   ar
     9    19    18   ar
    10    26    20    1
    11    20    21   ar
    12     2     8    1
    13     2     1   ar
    14     2     3   ar
    15    10     9    1
    16     9     8    1
    17     9    11    1
    18     6     5    1
    19     4    18    1
    20     4     5   ar
    21     4     3   ar
    22    18    22   ar
    23     5     1   ar
    24     1     7    1
    25     3    13    1
    26    13    14    1
    27    14    15    1
    28    14    16    1
    29    46    40    1
    30    21    22   ar
    31    21    29    1
    32    34    33    1
    33    51    48    1
    34    29    33   ar
    35    29    30   ar
    36    33    32   ar
    37    49    48    1
    38    40    41   ar
    39    40    39   ar
    40    48    47    1
    41    48    50    1
    42    47    41    1
    43    30    36    1
    44    30    31   ar
    45    32    39    1
    46    32    31   ar
    47    41    42   ar
    48    36    35    3
    49    39    43   ar
    50    31    37    1
    51    37    38    1
    52    42    43   ar
    53    42    45    1
    54    43    44    1
