@<TRIPOS>MOLECULE
mol_data/noopt/geoms/mol2/13ll13ll-13ll.out
 50 50 0 0 0
SMALL
GASTEIGER

@<TRIPOS>ATOM
      1 C           1.1215   -0.3259    0.0002 C.ar    1  LIG1        0.0482
      2 C           0.7176    0.9721   -0.0005 C.ar    1  LIG1        0.1795
      3 C          -0.7144    0.9744    0.0003 C.ar    1  LIG1        0.1885
      4 C          -1.1226   -0.3223   -0.0003 C.ar    1  LIG1        0.1147
      5 N          -0.0018   -1.1217    0.0001 N.ar    1  LIG1       -0.3533
      6 H          -0.0034   -2.1157   -0.0003 H       1  LIG1        0.1656
      7 H           2.3167   -0.8373    0.0007 H       1  LIG1        0.0845
      8 O           1.4918    2.0165   -0.0003 O.3     1  LIG1       -0.4900
      9 C           2.8590    1.5971   -0.0003 C.3     1  LIG1        0.0790
     10 H           3.4958    2.4569   -0.0003 H       1  LIG1        0.0660
     11 H           3.0520    1.0102    0.8734 H       1  LIG1        0.0660
     12 H           3.0520    1.0102   -0.8739 H       1  LIG1        0.0660
     13 O          -1.4853    2.0212    0.0010 O.3     1  LIG1       -0.4895
     14 C          -0.6829    3.2049    0.0012 C.3     1  LIG1        0.0791
     15 H          -1.3178    4.0662    0.0016 H       1  LIG1        0.0660
     16 H          -0.0650    3.2168    0.8747 H       1  LIG1        0.0660
     17 H          -0.0654    3.2174   -0.8726 H       1  LIG1        0.0660
     18 C          -2.3194   -0.8299   -0.0001 C.ar    1  LIG1        0.1370
     19 C          -2.7274   -2.1266   -0.0005 C.ar    1  LIG1        0.1964
     20 C          -4.1594   -2.1244    0.0011 C.ar    1  LIG1        0.2497
     21 C          -4.5635   -0.8264    0.0006 C.ar    1  LIG1        0.1441
     22 N          -3.4402   -0.0305    0.0003 N.ar    1  LIG1       -0.2356
     23 H          -3.4386    0.9635   -0.0001 H       2  LIG2        0.0194
     24 O          -1.9565   -3.1734   -0.0006 O.3     1  LIG1       -0.4893
     25 C          -2.7589   -4.3571   -0.0007 C.3     1  LIG1        0.0791
     26 H          -2.1240   -5.2184   -0.0010 H       1  LIG1        0.0660
     27 H          -3.3764   -4.3695    0.8731 H       1  LIG1        0.0660
     28 H          -3.3767   -4.3691   -0.8742 H       1  LIG1        0.0660
     29 O          -4.9337   -3.1687    0.0023 O.3     1  LIG1       -0.2816
     30 C          -6.3008   -2.7494    0.0027 C.3     2  LIG2       -0.0776
     31 H          -6.9376   -3.6092    0.0035 H       1  LIG1        0.0194
     32 H          -6.4935   -2.1620    0.8761 H       1  LIG1        0.0194
     33 H          -6.4943   -2.1631   -0.8712 H       1  LIG1        0.0194
     34 C          -5.7587   -0.3150    0.0014 C.ar    1  LIG1        0.1433
     35 C          -6.1626    0.9830    0.0016 C.ar    1  LIG1        0.2490
     36 C          -7.5946    0.9853    0.0038 C.ar    1  LIG1        0.1869
     37 C          -8.0028   -0.3114    0.0030 C.ar    1  LIG1        0.0740
     38 N          -6.8820   -1.1108    0.0021 N.ar    1  LIG1       -0.2456
     39 H          -6.8836   -2.1048    0.0013 H       1  LIG1        0.0194
     40 H          -9.1996   -0.8190    0.0041 H       1  LIG1        0.0868
     41 O          -5.3884    2.0274    0.0015 O.3     1  LIG1       -0.2816
     42 C          -4.0213    1.6080    0.0014 C.3     3  LIG3       -0.0776
     43 H          -3.3844    2.4678    0.0012 H       2  LIG2        0.0194
     44 H          -3.8281    1.0213    0.8752 H       2  LIG2        0.0194
     45 H          -3.8283    1.0210   -0.8721 H       2  LIG2        0.0194
     46 O          -8.3655    2.0321    0.0056 O.3     1  LIG1       -0.4898
     47 C          -7.5631    3.2158    0.0062 C.3     1  LIG1        0.0790
     48 H          -8.1980    4.0771    0.0075 H       1  LIG1        0.0660
     49 H          -6.9448    3.2271    0.8794 H       1  LIG1        0.0660
     50 H          -6.9461    3.2289   -0.8679 H       1  LIG1        0.0660
@<TRIPOS>BOND
     1    28    25    1
     2    12     9    1
     3    17    14    1
     4    45    42    1
     5    33    30    1
     6    50    47    1
     7    26    25    1
     8    25    24    1
     9    25    27    1
    10    24    19    1
    11     2     8    1
    12     2     1   ar
    13     2     3   ar
    14    19    18   ar
    15    19    20   ar
    16     8     9    1
    17     4    18    1
    18     4     5   ar
    19     4     3   ar
    20     6     5    1
    21    10     9    1
    22     9    11    1
    23    23    42    1
    24    18    22   ar
    25     5     1   ar
    26     1     7    1
    27     3    13    1
    28    22    21   ar
    29    21    20   ar
    30    21    34    1
    31    13    14    1
    32    20    29    1
    33    43    42    1
    34    14    15    1
    35    14    16    1
    36    39    30    1
    37    42    44    1
    38    34    35   ar
    39    34    38   ar
    40    41    35    1
    41    35    36   ar
    42    38    37   ar
    43    30    31    1
    44    30    32    1
    45    37    36   ar
    46    37    40    1
    47    36    46    1
    48    46    47    1
    49    47    48    1
    50    47    49    1
