@<TRIPOS>MOLECULE
mol_data/noopt/geoms/mol2/13ll13ll.out
 34 33 0 0 0
SMALL
GASTEIGER

@<TRIPOS>ATOM
      1 C           1.1215   -0.3259    0.0002 C.ar    1  LIG1        0.0450
      2 C           0.7176    0.9721   -0.0005 C.ar    1  LIG1        0.1458
      3 C          -0.7144    0.9744    0.0003 C.ar    1  LIG1        0.0562
      4 C          -1.1226   -0.3223   -0.0003 C.ar    1  LIG1        0.0784
      5 N          -0.0018   -1.1217    0.0001 N.ar    1  LIG1       -0.3559
      6 H          -0.0034   -2.1157   -0.0003 H       1  LIG1        0.1655
      7 H           2.3167   -0.8373    0.0007 H       1  LIG1        0.0844
      8 O           1.4918    2.0165   -0.0003 O.3     1  LIG1       -0.4930
      9 C           2.8590    1.5971   -0.0003 C.3     1  LIG1        0.0789
     10 H           3.4958    2.4569   -0.0003 H       1  LIG1        0.0660
     11 H           3.0520    1.0102    0.8734 H       1  LIG1        0.0660
     12 H           3.0520    1.0102   -0.8739 H       1  LIG1        0.0660
     13 O          -1.4853    2.0212    0.0010 O.3     1  LIG1       -0.2383
     14 C          -0.6829    3.2049    0.0012 C.3     2  LIG2       -0.0681
     15 H          -1.3178    4.0662    0.0016 H       2  LIG2        0.0227
     16 H          -0.0650    3.2168    0.8747 H       2  LIG2        0.0227
     17 H          -0.0654    3.2174   -0.8726 H       2  LIG2        0.0227
     18 C          -2.3194   -0.8299   -0.0001 C.ar    1  LIG1        0.1147
     19 C          -3.5353   -0.2219   -0.0003 C.ar    1  LIG1        0.2467
     20 C          -4.5290   -1.2530    0.0012 C.ar    1  LIG1        0.1846
     21 C          -3.8767   -2.4457    0.0005 C.ar    1  LIG1        0.0484
     22 N          -2.5238   -2.1913    0.0002 N.ar    1  LIG1       -0.3533
     23 H          -1.8081   -2.8811   -0.0004 H       1  LIG1        0.1656
     24 H          -4.3398   -3.6604    0.0012 H       1  LIG1        0.0846
     25 O          -3.7520    1.0599   -0.0003 O.3     1  LIG1       -0.2817
     26 C          -2.5024    1.7552   -0.0003 C.3     1  LIG1        0.0718
     27 H          -2.6813    2.8102   -0.0005 H       1  LIG1        0.0555
     28 H          -1.9455    1.4880    0.8734 H       1  LIG1        0.0555
     29 H          -1.9455    1.4878   -0.8739 H       1  LIG1        0.0555
     30 O          -5.8180   -1.0837    0.0025 O.3     1  LIG1       -0.4899
     31 C          -6.1157    0.3150    0.0029 C.3     1  LIG1        0.0790
     32 H          -7.1766    0.4539    0.0038 H       1  LIG1        0.0660
     33 H          -5.6958    0.7688    0.8763 H       1  LIG1        0.0660
     34 H          -5.6973    0.7690   -0.8710 H       1  LIG1        0.0660
@<TRIPOS>BOND
     1    29    26    1
     2    12     9    1
     3    17    14    1
     4    34    31    1
     5     2     8    1
     6     2     1   ar
     7     2     3   ar
     8    27    26    1
     9    23    22    1
    10    26    13    1
    11    26    28    1
    12    19    25    1
    13    19    18   ar
    14    19    20   ar
    15     4    18    1
    16     4     5   ar
    17     4     3   ar
    18     6     5    1
    19     8     9    1
    20     9    10    1
    21     9    11    1
    22    18    22   ar
    23     5     1   ar
    24    22    21   ar
    25     1     7    1
    26    21    20   ar
    27    21    24    1
    28    20    30    1
    29    14    15    1
    30    14    16    1
    31    30    31    1
    32    31    32    1
    33    31    33    1
