@<TRIPOS>MOLECULE
mol_data/noopt/geoms/mol2/13ll13ll13ll-13ll.out
 66 65 0 0 0
SMALL
GASTEIGER

@<TRIPOS>ATOM
      1 C           1.1215   -0.3259    0.0002 C.ar    1  LIG1        0.0450
      2 C           0.7176    0.9721   -0.0005 C.ar    1  LIG1        0.1458
      3 C          -0.7144    0.9744    0.0003 C.ar    1  LIG1        0.0562
      4 C          -1.1226   -0.3223   -0.0003 C.ar    1  LIG1        0.0784
      5 N          -0.0018   -1.1217    0.0001 N.ar    1  LIG1       -0.3559
      6 H          -0.0034   -2.1157   -0.0003 H       1  LIG1        0.1655
      7 H           2.3167   -0.8373    0.0007 H       1  LIG1        0.0844
      8 O           1.4918    2.0165   -0.0003 O.3     1  LIG1       -0.4930
      9 C           2.8590    1.5971   -0.0003 C.3     1  LIG1        0.0789
     10 H           3.4958    2.4569   -0.0003 H       1  LIG1        0.0660
     11 H           3.0520    1.0102    0.8734 H       1  LIG1        0.0660
     12 H           3.0520    1.0102   -0.8739 H       1  LIG1        0.0660
     13 O          -1.4853    2.0212    0.0010 O.3     1  LIG1       -0.2383
     14 C          -0.6829    3.2049    0.0012 C.3     2  LIG2       -0.0681
     15 H          -1.3178    4.0662    0.0016 H       2  LIG2        0.0227
     16 H          -0.0650    3.2168    0.8747 H       2  LIG2        0.0227
     17 H          -0.0654    3.2174   -0.8726 H       2  LIG2        0.0227
     18 C          -2.3194   -0.8299   -0.0001 C.ar    1  LIG1        0.1151
     19 C          -3.5353   -0.2219   -0.0003 C.ar    1  LIG1        0.2474
     20 C          -4.5290   -1.2530    0.0012 C.ar    1  LIG1        0.1943
     21 C          -3.8767   -2.4457    0.0005 C.ar    1  LIG1        0.1153
     22 N          -2.5238   -2.1913    0.0002 N.ar    1  LIG1       -0.3457
     23 H          -1.8081   -2.8811   -0.0004 H       1  LIG1        0.1662
     24 O          -3.7520    1.0599   -0.0003 O.3     1  LIG1       -0.2817
     25 C          -2.5024    1.7552   -0.0003 C.3     1  LIG1        0.0718
     26 H          -2.6813    2.8102   -0.0005 H       1  LIG1        0.0555
     27 H          -1.9455    1.4880    0.8734 H       1  LIG1        0.0555
     28 H          -1.9455    1.4878   -0.8739 H       1  LIG1        0.0555
     29 O          -5.8180   -1.0837    0.0025 O.3     1  LIG1       -0.4894
     30 C          -6.1157    0.3150    0.0029 C.3     1  LIG1        0.0791
     31 H          -7.1766    0.4539    0.0038 H       1  LIG1        0.0660
     32 H          -5.6958    0.7688    0.8763 H       1  LIG1        0.0660
     33 H          -5.6973    0.7690   -0.8710 H       1  LIG1        0.0660
     34 C          -4.3398   -3.6604    0.0012 C.ar    1  LIG1        0.1370
     35 C          -3.6874   -4.8530    0.0012 C.ar    1  LIG1        0.1964
     36 C          -4.6811   -5.8841    0.0032 C.ar    1  LIG1        0.2497
     37 C          -5.8970   -5.2763    0.0027 C.ar    1  LIG1        0.1441
     38 N          -5.6927   -3.9149    0.0019 N.ar    1  LIG1       -0.2356
     39 H          -6.4084   -3.2251    0.0013 H       4  LIG4        0.0194
     40 O          -2.3984   -5.0223    0.0009 O.3     1  LIG1       -0.4893
     41 C          -2.1007   -6.4210    0.0008 C.3     1  LIG1        0.0791
     42 H          -1.0397   -6.5599    0.0004 H       1  LIG1        0.0660
     43 H          -2.5195   -6.8749    0.8746 H       1  LIG1        0.0660
     44 H          -2.5201   -6.8748   -0.8727 H       1  LIG1        0.0660
     45 O          -4.4643   -7.1660    0.0049 O.3     1  LIG1       -0.2816
     46 C          -5.7139   -7.8613    0.0054 C.3     3  LIG3       -0.0776
     47 H          -5.5350   -8.9163    0.0066 H       3  LIG3        0.0194
     48 H          -6.2710   -7.5931    0.8787 H       3  LIG3        0.0194
     49 H          -6.2707   -7.5950   -0.8686 H       3  LIG3        0.0194
     50 C          -7.0939   -5.7839    0.0038 C.ar    1  LIG1        0.1433
     51 C          -8.3097   -5.1759    0.0043 C.ar    1  LIG1        0.2490
     52 C          -9.3034   -6.2070    0.0067 C.ar    1  LIG1        0.1869
     53 C          -8.6511   -7.3997    0.0060 C.ar    1  LIG1        0.0740
     54 N          -7.2982   -7.1453    0.0047 N.ar    1  LIG1       -0.2456
     55 H          -6.5825   -7.8351    0.0038 H       3  LIG3        0.0194
     56 H          -9.1142   -8.6144    0.0073 H       1  LIG1        0.0868
     57 O          -8.5264   -3.8941    0.0041 O.3     1  LIG1       -0.2816
     58 C          -7.2769   -3.1988    0.0039 C.3     4  LIG4       -0.0776
     59 H          -7.4557   -2.1438    0.0036 H       4  LIG4        0.0194
     60 H          -6.7200   -3.4658    0.8777 H       4  LIG4        0.0194
     61 H          -6.7199   -3.4663   -0.8696 H       4  LIG4        0.0194
     62 O         -10.5924   -6.0377    0.0089 O.3     1  LIG1       -0.4898
     63 C         -10.8901   -4.6390    0.0096 C.3     1  LIG1        0.0790
     64 H         -11.9510   -4.5001    0.0111 H       1  LIG1        0.0660
     65 H         -10.4697   -4.1853    0.8827 H       1  LIG1        0.0660
     66 H         -10.4723   -4.1850   -0.8646 H       1  LIG1        0.0660
@<TRIPOS>BOND
     1    28    25    1
     2    12     9    1
     3    44    41    1
     4    17    14    1
     5    33    30    1
     6    61    58    1
     7    49    46    1
     8    66    63    1
     9     2     8    1
    10     2     1   ar
    11     2     3   ar
    12    26    25    1
    13    23    22    1
    14    25    13    1
    15    25    27    1
    16    19    24    1
    17    19    18   ar
    18    19    20   ar
    19    10     9    1
    20     9     8    1
    21     9    11    1
    22     6     5    1
    23     4    18    1
    24     4     5   ar
    25     4     3   ar
    26    18    22   ar
    27     5     1   ar
    28    22    21   ar
    29     1     7    1
    30    42    41    1
    31    21    20   ar
    32    21    34    1
    33    41    40    1
    34    41    43    1
    35    40    35    1
    36    35    34   ar
    37    35    36   ar
    38    20    29    1
    39    14    15    1
    40    14    16    1
    41    34    38   ar
    42    39    58    1
    43    38    37   ar
    44    29    30    1
    45    37    36   ar
    46    37    50    1
    47    30    31    1
    48    30    32    1
    49    36    45    1
    50    59    58    1
    51    55    46    1
    52    50    51   ar
    53    50    54   ar
    54    58    60    1
    55    57    51    1
    56    51    52   ar
    57    54    53   ar
    58    46    47    1
    59    46    48    1
    60    53    52   ar
    61    53    56    1
    62    52    62    1
    63    62    63    1
    64    63    64    1
    65    63    65    1
