@<TRIPOS>MOLECULE
mol_data/noopt/geoms/mol2/13ll13ll-13ll13ll-.out
 66 67 0 0 0
SMALL
GASTEIGER

@<TRIPOS>ATOM
      1 C           1.1215   -0.3259    0.0002 C.ar    1  LIG1        0.0482
      2 C           0.7176    0.9721   -0.0005 C.ar    1  LIG1        0.1795
      3 C          -0.7144    0.9744    0.0003 C.ar    1  LIG1        0.1885
      4 C          -1.1226   -0.3223   -0.0003 C.ar    1  LIG1        0.1147
      5 N          -0.0018   -1.1217    0.0001 N.ar    1  LIG1       -0.3533
      6 H          -0.0034   -2.1157   -0.0003 H       1  LIG1        0.1656
      7 H           2.3167   -0.8373    0.0007 H       1  LIG1        0.0845
      8 O           1.4918    2.0165   -0.0003 O.3     1  LIG1       -0.4900
      9 C           2.8590    1.5971   -0.0003 C.3     1  LIG1        0.0790
     10 H           3.4958    2.4569   -0.0003 H       1  LIG1        0.0660
     11 H           3.0520    1.0102    0.8734 H       1  LIG1        0.0660
     12 H           3.0520    1.0102   -0.8739 H       1  LIG1        0.0660
     13 O          -1.4853    2.0212    0.0010 O.3     1  LIG1       -0.4895
     14 C          -0.6829    3.2049    0.0012 C.3     1  LIG1        0.0791
     15 H          -1.3178    4.0662    0.0016 H       1  LIG1        0.0660
     16 H          -0.0650    3.2168    0.8747 H       1  LIG1        0.0660
     17 H          -0.0654    3.2174   -0.8726 H       1  LIG1        0.0660
     18 C          -2.3194   -0.8299   -0.0001 C.ar    1  LIG1        0.1370
     19 C          -2.7274   -2.1266   -0.0005 C.ar    1  LIG1        0.1964
     20 C          -4.1594   -2.1244    0.0011 C.ar    1  LIG1        0.2497
     21 C          -4.5635   -0.8264    0.0006 C.ar    1  LIG1        0.1441
     22 N          -3.4402   -0.0305    0.0003 N.ar    1  LIG1       -0.2356
     23 H          -3.4386    0.9635   -0.0001 H       2  LIG2        0.0194
     24 O          -1.9565   -3.1734   -0.0006 O.3     1  LIG1       -0.4893
     25 C          -2.7589   -4.3571   -0.0007 C.3     1  LIG1        0.0791
     26 H          -2.1240   -5.2184   -0.0010 H       1  LIG1        0.0660
     27 H          -3.3764   -4.3695    0.8731 H       1  LIG1        0.0660
     28 H          -3.3767   -4.3691   -0.8742 H       1  LIG1        0.0660
     29 O          -4.9337   -3.1687    0.0023 O.3     1  LIG1       -0.2816
     30 C          -6.3008   -2.7494    0.0027 C.3     2  LIG2       -0.0776
     31 H          -6.9376   -3.6092    0.0035 H       1  LIG1        0.0194
     32 H          -6.4935   -2.1620    0.8761 H       1  LIG1        0.0194
     33 H          -6.4943   -2.1631   -0.8712 H       1  LIG1        0.0194
     34 C          -5.7587   -0.3150    0.0014 C.ar    1  LIG1        0.1441
     35 C          -6.1626    0.9830    0.0016 C.ar    1  LIG1        0.2497
     36 C          -7.5946    0.9853    0.0038 C.ar    1  LIG1        0.1964
     37 C          -8.0028   -0.3114    0.0030 C.ar    1  LIG1        0.1370
     38 N          -6.8820   -1.1108    0.0021 N.ar    1  LIG1       -0.2356
     39 H          -6.8836   -2.1048    0.0013 H       1  LIG1        0.0194
     40 O          -5.3884    2.0274    0.0015 O.3     1  LIG1       -0.2816
     41 C          -4.0213    1.6080    0.0014 C.3     3  LIG3       -0.0776
     42 H          -3.3844    2.4678    0.0012 H       2  LIG2        0.0194
     43 H          -3.8281    1.0213    0.8752 H       2  LIG2        0.0194
     44 H          -3.8283    1.0210   -0.8721 H       2  LIG2        0.0194
     45 O          -8.3655    2.0321    0.0056 O.3     1  LIG1       -0.4893
     46 C          -7.5631    3.2158    0.0062 C.3     1  LIG1        0.0791
     47 H          -8.1980    4.0771    0.0075 H       1  LIG1        0.0660
     48 H          -6.9448    3.2271    0.8794 H       1  LIG1        0.0660
     49 H          -6.9461    3.2289   -0.8679 H       1  LIG1        0.0660
     50 C          -9.1996   -0.8190    0.0041 C.ar    1  LIG1        0.1147
     51 C          -9.6076   -2.1157    0.0044 C.ar    1  LIG1        0.1885
     52 C         -11.0396   -2.1135    0.0069 C.ar    1  LIG1        0.1795
     53 C         -11.4437   -0.8155    0.0063 C.ar    1  LIG1        0.0482
     54 N         -10.3204   -0.0196    0.0051 N.ar    1  LIG1       -0.3533
     55 H         -10.3188    0.9744    0.0043 H       1  LIG1        0.1656
     56 H         -12.6389   -0.3041    0.0077 H       1  LIG1        0.0845
     57 O          -8.8367   -3.1625    0.0040 O.3     1  LIG1       -0.4895
     58 C          -9.6391   -4.3462    0.0038 C.3     1  LIG1        0.0791
     59 H          -9.0042   -5.2075    0.0034 H       1  LIG1        0.0660
     60 H         -10.2566   -4.3587    0.8777 H       1  LIG1        0.0660
     61 H         -10.2570   -4.3581   -0.8696 H       1  LIG1        0.0660
     62 O         -11.8139   -3.1578    0.0089 O.3     1  LIG1       -0.4900
     63 C         -13.1810   -2.7385    0.0095 C.3     1  LIG1        0.0790
     64 H         -13.8179   -3.5983    0.0110 H       1  LIG1        0.0660
     65 H         -13.3734   -2.1507    0.8828 H       1  LIG1        0.0660
     66 H         -13.3748   -2.1526   -0.8645 H       1  LIG1        0.0660
@<TRIPOS>BOND
     1    28    25    1
     2    12     9    1
     3    17    14    1
     4    44    41    1
     5    33    30    1
     6    61    58    1
     7    49    46    1
     8    66    63    1
     9    26    25    1
    10    25    24    1
    11    25    27    1
    12    24    19    1
    13     2     8    1
    14     2     1   ar
    15     2     3   ar
    16    19    18   ar
    17    19    20   ar
    18    10     9    1
    19     9     8    1
    20     9    11    1
    21     6     5    1
    22     4    18    1
    23     4     5   ar
    24     4     3   ar
    25    23    41    1
    26    18    22   ar
    27     5     1   ar
    28     1     7    1
    29     3    13    1
    30    22    21   ar
    31    21    20   ar
    32    21    34    1
    33    13    14    1
    34    20    29    1
    35    42    41    1
    36    14    15    1
    37    14    16    1
    38    39    30    1
    39    41    43    1
    40    34    35   ar
    41    34    38   ar
    42    40    35    1
    43    35    36   ar
    44    38    37   ar
    45    30    31    1
    46    30    32    1
    47    37    36   ar
    48    37    50    1
    49    59    58    1
    50    36    45    1
    51    58    57    1
    52    58    60    1
    53    57    51    1
    54    50    51   ar
    55    50    54   ar
    56    55    54    1
    57    51    52   ar
    58    54    53   ar
    59    45    46    1
    60    46    47    1
    61    46    48    1
    62    53    52   ar
    63    53    56    1
    64    52    62    1
    65    62    63    1
    66    63    64    1
    67    63    65    1
