@<TRIPOS>MOLECULE
mol_data/noopt/geoms/mol2/13ll13ll-13ll-13ll.out
 66 66 0 0 0
SMALL
GASTEIGER

@<TRIPOS>ATOM
      1 C           1.1215   -0.3259    0.0002 C.ar    1  LIG1        0.0482
      2 C           0.7176    0.9721   -0.0005 C.ar    1  LIG1        0.1795
      3 C          -0.7144    0.9744    0.0003 C.ar    1  LIG1        0.1884
      4 C          -1.1226   -0.3223   -0.0003 C.ar    1  LIG1        0.1126
      5 N          -0.0018   -1.1217    0.0001 N.ar    1  LIG1       -0.3534
      6 H          -0.0034   -2.1157   -0.0003 H       1  LIG1        0.1656
      7 H           2.3167   -0.8373    0.0007 H       1  LIG1        0.0845
      8 O           1.4918    2.0165   -0.0003 O.3     1  LIG1       -0.4900
      9 C           2.8590    1.5971   -0.0003 C.3     1  LIG1        0.0790
     10 H           3.4958    2.4569   -0.0003 H       1  LIG1        0.0660
     11 H           3.0520    1.0102    0.8734 H       1  LIG1        0.0660
     12 H           3.0520    1.0102   -0.8739 H       1  LIG1        0.0660
     13 O          -1.4853    2.0212    0.0010 O.3     1  LIG1       -0.4895
     14 C          -0.6829    3.2049    0.0012 C.3     1  LIG1        0.0791
     15 H          -1.3178    4.0662    0.0016 H       1  LIG1        0.0660
     16 H          -0.0650    3.2168    0.8747 H       1  LIG1        0.0660
     17 H          -0.0654    3.2174   -0.8726 H       1  LIG1        0.0660
     18 C          -2.3194   -0.8299   -0.0001 C.ar    1  LIG1        0.1132
     19 C          -2.7274   -2.1266   -0.0005 C.ar    1  LIG1        0.1942
     20 C          -4.1594   -2.1244    0.0011 C.ar    1  LIG1        0.2476
     21 C          -4.5635   -0.8264    0.0006 C.ar    1  LIG1        0.1202
     22 N          -3.4402   -0.0305    0.0003 N.ar    1  LIG1       -0.3456
     23 H          -3.4386    0.9635   -0.0001 H       1  LIG1        0.1662
     24 O          -1.9565   -3.1734   -0.0006 O.3     1  LIG1       -0.4894
     25 C          -2.7589   -4.3571   -0.0007 C.3     1  LIG1        0.0791
     26 H          -2.1240   -5.2184   -0.0010 H       1  LIG1        0.0660
     27 H          -3.3764   -4.3695    0.8731 H       1  LIG1        0.0660
     28 H          -3.3767   -4.3691   -0.8742 H       1  LIG1        0.0660
     29 O          -4.9337   -3.1687    0.0023 O.3     1  LIG1       -0.2817
     30 C          -6.3008   -2.7494    0.0027 C.3     1  LIG1        0.0791
     31 H          -6.9376   -3.6092    0.0035 H       1  LIG1        0.0660
     32 H          -6.4935   -2.1620    0.8761 H       1  LIG1        0.0660
     33 H          -6.4943   -2.1631   -0.8712 H       1  LIG1        0.0660
     34 C          -5.7587   -0.3150    0.0014 C.ar    1  LIG1        0.1372
     35 C          -6.9765   -0.9191    0.0015 C.ar    1  LIG1        0.1964
     36 C          -7.9670    0.1151    0.0037 C.ar    1  LIG1        0.2497
     37 C          -7.3109    1.3057    0.0031 C.ar    1  LIG1        0.1441
     38 N          -5.9587    1.0470    0.0022 N.ar    1  LIG1       -0.2356
     39 H          -5.2408    1.7345    0.0016 H       3  LIG3        0.0194
     40 O          -7.1973   -2.2003    0.0012 O.3     1  LIG1       -0.4893
     41 C          -8.6068   -2.4417    0.0010 C.3     2  LIG2       -0.0681
     42 H          -8.7881   -3.4962    0.0007 H       1  LIG1        0.0227
     43 H          -9.0435   -2.0050    0.8749 H       1  LIG1        0.0227
     44 H          -9.0434   -2.0044   -0.8724 H       1  LIG1        0.0227
     45 O          -9.2565   -0.0501    0.0054 O.3     1  LIG1       -0.2816
     46 C          -9.9012    1.2263    0.0060 C.3     3  LIG3       -0.0776
     47 H         -10.9624    1.0899    0.0073 H       2  LIG2        0.0194
     48 H          -9.6107    1.7723    0.8793 H       2  LIG2        0.0194
     49 H          -9.6128    1.7720   -0.8680 H       2  LIG2        0.0194
     50 C          -7.7701    2.5219    0.0044 C.ar    1  LIG1        0.1433
     51 C          -7.1139    3.7125    0.0049 C.ar    1  LIG1        0.2490
     52 C          -8.1043    4.7467    0.0074 C.ar    1  LIG1        0.1869
     53 C          -9.3222    4.1427    0.0066 C.ar    1  LIG1        0.0740
     54 N          -9.1222    2.7807    0.0052 N.ar    1  LIG1       -0.2456
     55 H          -9.8401    2.0932    0.0043 H       2  LIG2        0.0194
     56 H         -10.5174    4.6541    0.0080 H       1  LIG1        0.0868
     57 O          -5.8244    3.8776    0.0047 O.3     1  LIG1       -0.2816
     58 C          -5.1797    2.6012    0.0045 C.3     4  LIG4       -0.0776
     59 H          -4.1184    2.7376    0.0042 H       3  LIG3        0.0194
     60 H          -5.4689    2.0555    0.8783 H       3  LIG3        0.0194
     61 H          -5.4694    2.0554   -0.8690 H       3  LIG3        0.0194
     62 O          -7.8835    6.0279    0.0096 O.3     1  LIG1       -0.4898
     63 C          -6.4740    6.2692    0.0103 C.3     1  LIG1        0.0790
     64 H          -6.2927    7.3238    0.0120 H       1  LIG1        0.0660
     65 H          -6.0375    5.8310    0.8835 H       1  LIG1        0.0660
     66 H          -6.0371    5.8336   -0.8638 H       1  LIG1        0.0660
@<TRIPOS>BOND
     1    28    25    1
     2    12     9    1
     3    17    14    1
     4    44    41    1
     5    33    30    1
     6    61    58    1
     7    49    46    1
     8    66    63    1
     9    26    25    1
    10    25    24    1
    11    25    27    1
    12    24    19    1
    13     2     8    1
    14     2     1   ar
    15     2     3   ar
    16    19    18   ar
    17    19    20   ar
    18    10     9    1
    19     9     8    1
    20     9    11    1
    21     6     5    1
    22     4    18    1
    23     4     5   ar
    24     4     3   ar
    25    23    22    1
    26    18    22   ar
    27     5     1   ar
    28     1     7    1
    29     3    13    1
    30    22    21   ar
    31    21    20   ar
    32    21    34    1
    33    42    41    1
    34    13    14    1
    35    41    43    1
    36    20    29    1
    37    14    15    1
    38    14    16    1
    39    40    35    1
    40    40    30    1
    41    34    35   ar
    42    34    38   ar
    43    35    36   ar
    44    39    58    1
    45    38    37   ar
    46    30    31    1
    47    30    32    1
    48    37    36   ar
    49    37    50    1
    50    36    45    1
    51    59    58    1
    52    55    46    1
    53    50    51   ar
    54    50    54   ar
    55    58    60    1
    56    57    51    1
    57    51    52   ar
    58    54    53   ar
    59    46    47    1
    60    46    48    1
    61    53    52   ar
    62    53    56    1
    63    52    62    1
    64    62    63    1
    65    63    64    1
    66    63    65    1
