@<TRIPOS>MOLECULE
mol_data/noopt/geoms/mol2/13ll4ai(90)13dl(110)4ii(190).out
 60 63 0 0 0
SMALL
GASTEIGER

@<TRIPOS>ATOM
      1 C           1.1215   -0.3259    0.0002 C.ar    1  LIG1        0.0481
      2 C           0.7176    0.9721   -0.0005 C.ar    1  LIG1        0.1794
      3 C          -0.7144    0.9744    0.0003 C.ar    1  LIG1        0.1868
      4 C          -1.1226   -0.3223   -0.0003 C.ar    1  LIG1        0.0925
      5 N          -0.0018   -1.1217    0.0001 N.ar    1  LIG1       -0.3546
      6 H          -0.0034   -2.1157   -0.0003 H       1  LIG1        0.1656
      7 H           2.3167   -0.8373    0.0007 H       1  LIG1        0.0845
      8 O           1.4918    2.0165   -0.0003 O.3     1  LIG1       -0.4900
      9 C           2.8590    1.5971   -0.0003 C.3     1  LIG1        0.0790
     10 H           3.4958    2.4569   -0.0003 H       1  LIG1        0.0660
     11 H           3.0520    1.0102    0.8734 H       1  LIG1        0.0660
     12 H           3.0520    1.0102   -0.8739 H       1  LIG1        0.0660
     13 O          -1.4853    2.0212    0.0010 O.3     1  LIG1       -0.4895
     14 C          -0.6829    3.2049    0.0012 C.3     1  LIG1        0.0791
     15 H          -1.3178    4.0662    0.0016 H       1  LIG1        0.0660
     16 H          -0.0650    3.2168    0.8747 H       1  LIG1        0.0660
     17 H          -0.0654    3.2174   -0.8726 H       1  LIG1        0.0660
     18 C          -2.9656   -1.1048    1.2224 C.ar    1  LIG1       -0.0519
     19 C          -4.2606   -1.6557    1.1690 C.ar    1  LIG1       -0.0517
     20 C          -2.3194   -0.8299   -0.0001 C.ar    1  LIG1        0.0023
     21 C          -4.8866   -1.9213   -0.0467 C.ar    1  LIG1        0.0026
     22 H          -4.7772   -1.8757    2.1006 H       1  LIG1        0.0624
     23 C          -2.9439   -1.0949   -1.2141 C.ar    1  LIG1       -0.0490
     24 C          -4.2308   -1.6420   -1.2464 C.ar    1  LIG1       -0.0407
     25 H          -2.4247   -0.8742   -2.1433 H       1  LIG1        0.0627
     26 H          -2.4336   -0.8788    2.3869 H       1  LIG1        0.0624
     27 C          -4.8097   -1.8878   -2.3845 C.3     1  LIG1       -0.0391
     28 H          -5.0334   -2.9319   -2.4527 H       1  LIG1        0.0278
     29 H          -4.1558   -1.6101   -3.1846 H       1  LIG1        0.0278
     30 H          -5.7163   -1.3236   -2.4527 H       1  LIG1        0.0278
     31 C          -6.0829   -2.4301   -0.0591 C.ar    1  LIG1        0.0684
     32 C          -6.7541   -3.1286    0.8945 C.ar    1  LIG1        0.1191
     33 C          -8.0421   -3.4535    0.3596 C.ar    1  LIG1        0.1632
     34 C          -8.1019   -2.9377   -0.8968 C.ar    1  LIG1        0.0907
     35 N          -6.9043   -2.3108   -1.1573 N.ar    1  LIG1       -0.3502
     36 H          -6.6702   -1.8452   -2.0038 H       1  LIG1        0.1660
     37 N          -5.9097   -3.7207    3.1131 N.1     1  LIG1       -0.1907
     38 C          -6.3055   -3.4432    2.0734 C.1     1  LIG1        0.1050
     39 O          -8.9833   -4.1183    0.9614 O.3     1  LIG1       -0.4917
     40 C         -10.1066   -3.2614    1.1823 C.3     1  LIG1        0.0789
     41 H         -10.8811   -3.8090    1.6775 H       1  LIG1        0.0660
     42 H          -9.8094   -2.4337    1.7919 H       1  LIG1        0.0660
     43 H         -10.4699   -2.9002    0.2429 H       1  LIG1        0.0660
     44 C          -9.3891   -4.1859   -2.4098 C.ar    1  LIG1       -0.0412
     45 C         -10.4309   -4.1682   -3.3573 C.ar    1  LIG1       -0.0580
     46 C          -9.0577   -2.9702   -1.7773 C.ar    1  LIG1        0.0051
     47 C         -11.1143   -2.9933   -3.6626 C.ar    1  LIG1       -0.0586
     48 H         -10.7027   -5.0951   -3.8573 H       1  LIG1        0.0620
     49 C          -9.7396   -1.7970   -2.0817 C.ar    1  LIG1       -0.0493
     50 C         -10.7719   -1.7999   -3.0256 C.ar    1  LIG1       -0.0498
     51 H          -9.4653   -0.8722   -1.5805 H       1  LIG1        0.0627
     52 H         -12.0711   -3.0131   -4.5424 H       1  LIG1        0.0620
     53 C          -8.7886   -5.3133   -2.1669 C.3     1  LIG1       -0.0391
     54 H          -7.8971   -5.1287   -1.6047 H       1  LIG1        0.0278
     55 H          -8.5351   -5.7889   -3.0913 H       1  LIG1        0.0278
     56 H          -9.4392   -5.9501   -1.6048 H       1  LIG1        0.0278
     57 C         -11.4058   -0.6998   -3.3063 C.3     1  LIG1       -0.0397
     58 H         -12.3910   -0.7399   -2.8907 H       1  LIG1        0.0278
     59 H         -11.4711   -0.5867   -4.3683 H       1  LIG1        0.0278
     60 H         -10.8771    0.1325   -2.8908 H       1  LIG1        0.0278
@<TRIPOS>BOND
     1    52    47    1
     2    59    57    1
     3    48    45    1
     4    47    45   ar
     5    47    50   ar
     6    45    44   ar
     7    57    50    1
     8    57    60    1
     9    57    58    1
    10    29    27    1
    11    55    53    1
    12    50    49   ar
    13    28    27    1
    14    30    27    1
    15    44    53    1
    16    44    46   ar
    17    27    24    1
    18    53    56    1
    19    53    54    1
    20    25    23    1
    21    49    46   ar
    22    49    51    1
    23    36    35    1
    24    46    34    1
    25    24    23   ar
    26    24    21   ar
    27    23    20   ar
    28    35    34   ar
    29    35    31   ar
    30    34    33   ar
    31    12     9    1
    32    17    14    1
    33    31    21    1
    34    31    32   ar
    35    21    19   ar
    36     2     8    1
    37     2     1   ar
    38     2     3   ar
    39     4    20    1
    40     4     5   ar
    41     4     3   ar
    42     6     5    1
    43     8     9    1
    44     9    10    1
    45     9    11    1
    46    20    18   ar
    47     5     1   ar
    48     1     7    1
    49     3    13    1
    50    13    14    1
    51    14    15    1
    52    14    16    1
    53    43    40    1
    54    33    32   ar
    55    33    39    1
    56    32    38    1
    57    39    40    1
    58    19    18   ar
    59    19    22    1
    60    40    41    1
    61    40    42    1
    62    18    26    1
    63    38    37    3
