@<TRIPOS>MOLECULE
mol_data/noopt/geoms/mol2/13ll12fi-13ae-13ld.out
 52 54 0 0 0
SMALL
GASTEIGER

@<TRIPOS>ATOM
      1 C           1.1215   -0.3259    0.0002 C.ar    1  LIG1        0.0482
      2 C           0.7176    0.9721   -0.0005 C.ar    1  LIG1        0.1795
      3 C          -0.7144    0.9744    0.0003 C.ar    1  LIG1        0.1900
      4 C          -1.1226   -0.3223   -0.0003 C.ar    1  LIG1        0.1317
      5 N          -0.0018   -1.1217    0.0001 N.ar    1  LIG1       -0.3521
      6 H          -0.0034   -2.1157   -0.0003 H       1  LIG1        0.1656
      7 H           2.3167   -0.8373    0.0007 H       1  LIG1        0.0845
      8 O           1.4918    2.0165   -0.0003 O.3     1  LIG1       -0.4900
      9 C           2.8590    1.5971   -0.0003 C.3     1  LIG1        0.0790
     10 H           3.4958    2.4569   -0.0003 H       1  LIG1        0.0660
     11 H           3.0520    1.0102    0.8734 H       1  LIG1        0.0660
     12 H           3.0520    1.0102   -0.8739 H       1  LIG1        0.0660
     13 O          -1.4853    2.0212    0.0010 O.3     1  LIG1       -0.4894
     14 C          -0.6829    3.2049    0.0012 C.3     1  LIG1        0.0791
     15 H          -1.3178    4.0662    0.0016 H       1  LIG1        0.0660
     16 H          -0.0650    3.2168    0.8747 H       1  LIG1        0.0660
     17 H          -0.0654    3.2174   -0.8726 H       1  LIG1        0.0660
     18 C          -2.3194   -0.8299   -0.0001 C.ar    1  LIG1        0.1969
     19 C          -3.6025   -0.3232    0.0001 C.ar    1  LIG1        0.1679
     20 C          -4.4979   -1.4613    0.0002 C.ar    1  LIG1        0.0389
     21 C          -3.7022   -2.5884    0.0001 C.ar    1  LIG1        0.1584
     22 O          -2.3550   -2.2250   -0.0002 O.2     1  LIG1       -0.4477
     23 O          -3.9649    0.9253    0.0001 O.3     1  LIG1       -0.5030
     24 H          -4.9233    0.9807    0.0001 H       1  LIG1        0.2923
     25 C          -5.7969   -1.4035    0.0004 C.3     1  LIG1       -0.0325
     26 H          -6.1920   -2.2604    0.5049 H       1  LIG1        0.0280
     27 H          -6.1534   -1.3877   -1.0084 H       1  LIG1        0.0280
     28 H          -6.1143   -0.5148    0.5048 H       1  LIG1        0.0280
     29 C          -3.9132   -3.8712    0.0002 C.ar    1  LIG1        0.0836
     30 C          -5.0769   -4.5736    0.0165 C.ar    1  LIG1       -0.0249
     31 C          -4.7371   -5.9646    0.0089 C.ar    1  LIG1        0.0117
     32 C          -3.3806   -6.0511   -0.0134 C.ar    1  LIG1        0.0751
     33 N          -2.8722   -4.7718   -0.0184 N.ar    1  LIG1       -0.3500
     34 H          -1.9067   -4.5358   -0.0337 H       1  LIG1        0.1661
     35 H          -6.2758   -4.0713    0.0369 H       1  LIG1        0.0646
     36 C          -5.5692   -6.9633    0.0207 C.3     1  LIG1       -0.0163
     37 C          -6.3381   -7.8861    0.0316 C.3     1  LIG1       -0.0273
     38 H          -7.0231   -8.7081    0.0414 H       1  LIG1        0.0312
     39 C          -2.6018   -7.0920   -0.0279 C.ar    1  LIG1        0.1121
     40 C          -2.9016   -8.4179   -0.0214 C.ar    1  LIG1        0.2227
     41 C          -1.6631   -9.1365   -0.0438 C.ar    1  LIG1        0.1163
     42 C          -0.6610   -8.2181   -0.0646 C.ar    1  LIG1        0.0235
     43 N          -1.2313   -6.9651   -0.0545 N.ar    1  LIG1       -0.3552
     44 H          -0.7326   -6.1053   -0.0654 H       1  LIG1        0.1655
     45 H           0.6289   -8.3775   -0.0891 H       1  LIG1        0.0821
     46 O          -4.0943   -8.9347    0.0023 O.3     1  LIG1       -0.2842
     47 C          -5.0680   -7.8875    0.0109 C.3     1  LIG1       -0.0582
     48 H          -6.0495   -8.3132    0.0303 H       1  LIG1        0.0236
     49 H          -4.9271   -7.2765    0.8781 H       1  LIG1        0.0236
     50 H          -4.9562   -7.2891   -0.8690 H       1  LIG1        0.0236
     51 N          -1.3928  -11.5681   -0.0451 N.1     1  LIG1       -0.1907
     52 C          -1.5195  -10.4285   -0.0445 C.1     1  LIG1        0.1045
@<TRIPOS>BOND
     1    27    25    1
     2    12     9    1
     3    17    14    1
     4    50    47    1
     5    45    42    1
     6    44    43    1
     7    42    43   ar
     8    42    41   ar
     9    43    39   ar
    10    51    52    3
    11    52    41    1
    12    41    40   ar
    13    34    33    1
    14    39    40   ar
    15    39    32    1
    16    40    46    1
    17    33    32   ar
    18    33    29   ar
    19    32    31   ar
    20     2     8    1
    21     2     1   ar
    22     2     3   ar
    23    10     9    1
    24     4    18    1
    25     4     5   ar
    26     4     3   ar
    27     8     9    1
    28     6     5    1
    29     9    11    1
    30    22    18   ar
    31    22    21   ar
    32    18    19   ar
    33    19    23    1
    34    19    20   ar
    35     5     1   ar
    36    21    29    1
    37    21    20   ar
    38    23    24    1
    39     1     7    1
    40    29    30   ar
    41    20    25    1
    42     3    13    1
    43    25    28    1
    44    25    26    1
    45    13    14    1
    46    14    15    1
    47    14    16    1
    48    31    30   ar
    49    47    36    1
    50    47    48    1
    51    47    49    1
    52    30    35    1
    53    36    37    1
    54    37    38    1
