@<TRIPOS>MOLECULE
mol_data/noopt/geoms/mol2/13ll13ll-.out
 34 35 0 0 0
SMALL
GASTEIGER

@<TRIPOS>ATOM
      1 C           1.1215   -0.3259    0.0002 C.ar    1  LIG1        0.0482
      2 C           0.7176    0.9721   -0.0005 C.ar    1  LIG1        0.1795
      3 C          -0.7144    0.9744    0.0003 C.ar    1  LIG1        0.1884
      4 C          -1.1226   -0.3223   -0.0003 C.ar    1  LIG1        0.1126
      5 N          -0.0018   -1.1217    0.0001 N.ar    1  LIG1       -0.3534
      6 H          -0.0034   -2.1157   -0.0003 H       1  LIG1        0.1656
      7 H           2.3167   -0.8373    0.0007 H       1  LIG1        0.0845
      8 O           1.4918    2.0165   -0.0003 O.3     1  LIG1       -0.4900
      9 C           2.8590    1.5971   -0.0003 C.3     1  LIG1        0.0790
     10 H           3.4958    2.4569   -0.0003 H       1  LIG1        0.0660
     11 H           3.0520    1.0102    0.8734 H       1  LIG1        0.0660
     12 H           3.0520    1.0102   -0.8739 H       1  LIG1        0.0660
     13 O          -1.4853    2.0212    0.0010 O.3     1  LIG1       -0.4895
     14 C          -0.6829    3.2049    0.0012 C.3     1  LIG1        0.0791
     15 H          -1.3178    4.0662    0.0016 H       1  LIG1        0.0660
     16 H          -0.0650    3.2168    0.8747 H       1  LIG1        0.0660
     17 H          -0.0654    3.2174   -0.8726 H       1  LIG1        0.0660
     18 C          -2.3194   -0.8299   -0.0001 C.ar    1  LIG1        0.1126
     19 C          -2.7274   -2.1266   -0.0005 C.ar    1  LIG1        0.1884
     20 C          -4.1594   -2.1244    0.0011 C.ar    1  LIG1        0.1795
     21 C          -4.5635   -0.8264    0.0006 C.ar    1  LIG1        0.0482
     22 N          -3.4402   -0.0305    0.0003 N.ar    1  LIG1       -0.3534
     23 H          -3.4386    0.9635   -0.0001 H       1  LIG1        0.1656
     24 H          -5.7587   -0.3150    0.0014 H       1  LIG1        0.0845
     25 O          -1.9565   -3.1734   -0.0006 O.3     1  LIG1       -0.4895
     26 C          -2.7589   -4.3571   -0.0007 C.3     1  LIG1        0.0791
     27 H          -2.1240   -5.2184   -0.0010 H       1  LIG1        0.0660
     28 H          -3.3764   -4.3695    0.8731 H       1  LIG1        0.0660
     29 H          -3.3767   -4.3691   -0.8742 H       1  LIG1        0.0660
     30 O          -4.9337   -3.1687    0.0023 O.3     1  LIG1       -0.4900
     31 C          -6.3008   -2.7494    0.0027 C.3     1  LIG1        0.0790
     32 H          -6.9376   -3.6092    0.0035 H       1  LIG1        0.0660
     33 H          -6.4935   -2.1620    0.8761 H       1  LIG1        0.0660
     34 H          -6.4943   -2.1631   -0.8712 H       1  LIG1        0.0660
@<TRIPOS>BOND
     1    29    26    1
     2    12     9    1
     3    17    14    1
     4    34    31    1
     5    27    26    1
     6    26    25    1
     7    26    28    1
     8    25    19    1
     9     2     8    1
    10     2     1   ar
    11     2     3   ar
    12    19    18   ar
    13    19    20   ar
    14     4    18    1
    15     4     5   ar
    16     4     3   ar
    17     6     5    1
    18     8     9    1
    19     9    10    1
    20     9    11    1
    21    23    22    1
    22    18    22   ar
    23     5     1   ar
    24     1     7    1
    25     3    13    1
    26    22    21   ar
    27    21    20   ar
    28    21    24    1
    29    13    14    1
    30    20    30    1
    31    14    15    1
    32    14    16    1
    33    30    31    1
    34    31    32    1
    35    31    33    1
