@<TRIPOS>MOLECULE
mol_data/noopt/geoms/mol2/13ll13ll13ll13ll.out
 66 63 0 0 0
SMALL
GASTEIGER

@<TRIPOS>ATOM
      1 C           1.1215   -0.3259    0.0002 C.ar    1  LIG1        0.0450
      2 C           0.7176    0.9721   -0.0005 C.ar    1  LIG1        0.1458
      3 C          -0.7144    0.9744    0.0003 C.ar    1  LIG1        0.0562
      4 C          -1.1226   -0.3223   -0.0003 C.ar    1  LIG1        0.0783
      5 N          -0.0018   -1.1217    0.0001 N.ar    1  LIG1       -0.3559
      6 H          -0.0034   -2.1157   -0.0003 H       1  LIG1        0.1655
      7 H           2.3167   -0.8373    0.0007 H       1  LIG1        0.0844
      8 O           1.4918    2.0165   -0.0003 O.3     1  LIG1       -0.4930
      9 C           2.8590    1.5971   -0.0003 C.3     1  LIG1        0.0789
     10 H           3.4958    2.4569   -0.0003 H       1  LIG1        0.0660
     11 H           3.0520    1.0102    0.8734 H       1  LIG1        0.0660
     12 H           3.0520    1.0102   -0.8739 H       1  LIG1        0.0660
     13 O          -1.4853    2.0212    0.0010 O.3     1  LIG1       -0.2383
     14 C          -0.6829    3.2049    0.0012 C.3     2  LIG2       -0.0681
     15 H          -1.3178    4.0662    0.0016 H       2  LIG2        0.0227
     16 H          -0.0650    3.2168    0.8747 H       2  LIG2        0.0227
     17 H          -0.0654    3.2174   -0.8726 H       2  LIG2        0.0227
     18 C          -2.3194   -0.8299   -0.0001 C.ar    1  LIG1        0.1120
     19 C          -3.5353   -0.2219   -0.0003 C.ar    1  LIG1        0.2140
     20 C          -4.5290   -1.2530    0.0012 C.ar    1  LIG1        0.0621
     21 C          -3.8767   -2.4457    0.0005 C.ar    1  LIG1        0.0789
     22 N          -2.5238   -2.1913    0.0002 N.ar    1  LIG1       -0.3482
     23 H          -1.8081   -2.8811   -0.0004 H       1  LIG1        0.1661
     24 O          -3.7520    1.0599   -0.0003 O.3     1  LIG1       -0.2849
     25 C          -2.5024    1.7552   -0.0003 C.3     1  LIG1        0.0718
     26 H          -2.6813    2.8102   -0.0005 H       1  LIG1        0.0555
     27 H          -1.9455    1.4880    0.8734 H       1  LIG1        0.0555
     28 H          -1.9455    1.4878   -0.8739 H       1  LIG1        0.0555
     29 O          -5.8180   -1.0837    0.0025 O.3     3  LIG3       -0.2383
     30 C          -6.1157    0.3150    0.0029 C.3     3  LIG3       -0.0681
     31 H          -7.1766    0.4539    0.0038 H       4  LIG4        0.0227
     32 H          -5.6958    0.7688    0.8763 H       4  LIG4        0.0227
     33 H          -5.6973    0.7690   -0.8710 H       4  LIG4        0.0227
     34 C          -4.3398   -3.6604    0.0012 C.ar    1  LIG1        0.1120
     35 C          -5.6206   -4.1160    0.0013 C.ar    1  LIG1        0.2140
     36 C          -5.5655   -5.5470    0.0033 C.ar    1  LIG1        0.0621
     37 C          -4.2535   -5.9029    0.0026 C.ar    1  LIG1        0.0790
     38 N          -3.4996   -4.7510    0.0018 N.ar    1  LIG1       -0.3482
     39 H          -2.5064   -4.7127    0.0010 H       1  LIG1        0.1661
     40 O          -6.6951   -3.3843    0.0012 O.3     1  LIG1       -0.2849
     41 C          -6.3308   -2.0014    0.0011 C.3     3  LIG3        0.0718
     42 H          -7.2155   -1.3995    0.0009 H       3  LIG3        0.0555
     43 H          -5.7524   -1.7849    0.8749 H       3  LIG3        0.0555
     44 H          -5.7521   -1.7851   -0.8724 H       3  LIG3        0.0555
     45 O          -6.5806   -6.3592    0.0050 O.3     5  LIG5       -0.2383
     46 C          -7.7954   -5.6049    0.0056 C.3     4  LIG4       -0.0681
     47 H          -8.6306   -6.2737    0.0068 H       6  LIG6        0.0227
     48 H          -7.8316   -4.9876    0.8789 H       6  LIG6        0.0227
     49 H          -7.8332   -4.9888   -0.8684 H       6  LIG6        0.0227
     50 C          -3.6983   -7.0784    0.0036 C.ar    1  LIG1        0.1147
     51 C          -4.2571   -8.3176    0.0039 C.ar    1  LIG1        0.2467
     52 C          -3.1870   -9.2693    0.0063 C.ar    1  LIG1        0.1846
     53 C          -2.0214   -8.5697    0.0055 C.ar    1  LIG1        0.0484
     54 N          -2.3298   -7.2280    0.0043 N.ar    1  LIG1       -0.3533
     55 H          -1.6693   -6.4852    0.0035 H       1  LIG1        0.1656
     56 H          -0.7891   -8.9837    0.0068 H       1  LIG1        0.0846
     57 O          -5.5292   -8.5856    0.0038 O.3     1  LIG1       -0.2817
     58 C          -6.2741   -7.3649    0.0037 C.3     5  LIG5        0.0718
     59 H          -7.3210   -7.5858    0.0034 H       5  LIG5        0.0555
     60 H          -6.0295   -6.7977    0.8774 H       5  LIG5        0.0555
     61 H          -6.0290   -6.7976   -0.8699 H       5  LIG5        0.0555
     62 O          -3.3045  -10.5640    0.0083 O.3     1  LIG1       -0.4899
     63 C          -4.6901  -10.9175    0.0089 C.3     1  LIG1        0.0790
     64 H          -4.7864  -11.9831    0.0104 H       1  LIG1        0.0660
     65 H          -5.1603  -10.5157    0.8822 H       1  LIG1        0.0660
     66 H          -5.1606  -10.5181   -0.8651 H       1  LIG1        0.0660
@<TRIPOS>BOND
     1    28    25    1
     2    12     9    1
     3    17    14    1
     4    44    41    1
     5    33    30    1
     6    61    58    1
     7    49    46    1
     8    66    63    1
     9     2     8    1
    10     2     1   ar
    11     2     3   ar
    12    26    25    1
    13    23    22    1
    14    25    13    1
    15    25    27    1
    16    19    24    1
    17    19    18   ar
    18    19    20   ar
    19    10     9    1
    20     9     8    1
    21     9    11    1
    22     6     5    1
    23     4    18    1
    24     4     5   ar
    25     4     3   ar
    26    18    22   ar
    27     5     1   ar
    28    22    21   ar
    29     1     7    1
    30    21    20   ar
    31    21    34    1
    32    42    41    1
    33    39    38    1
    34    41    29    1
    35    41    43    1
    36    14    15    1
    37    14    16    1
    38    34    35   ar
    39    34    38   ar
    40    40    35    1
    41    35    36   ar
    42    38    37   ar
    43    37    36   ar
    44    37    50    1
    45    30    31    1
    46    30    32    1
    47    59    58    1
    48    55    54    1
    49    50    51   ar
    50    50    54   ar
    51    58    45    1
    52    58    60    1
    53    57    51    1
    54    51    52   ar
    55    54    53   ar
    56    53    52   ar
    57    53    56    1
    58    46    47    1
    59    46    48    1
    60    52    62    1
    61    62    63    1
    62    63    64    1
    63    63    65    1
