@<TRIPOS>MOLECULE
mol_data/noopt/geoms/mol2/13ll4hd(110)4dh(330)12if(200).out
 55 58 0 0 0
SMALL
GASTEIGER

@<TRIPOS>ATOM
      1 C           1.1215   -0.3259    0.0002 C.ar    1  LIG1        0.0481
      2 C           0.7176    0.9721   -0.0005 C.ar    1  LIG1        0.1794
      3 C          -0.7144    0.9744    0.0003 C.ar    1  LIG1        0.1869
      4 C          -1.1226   -0.3223   -0.0003 C.ar    1  LIG1        0.0943
      5 N          -0.0018   -1.1217    0.0001 N.ar    1  LIG1       -0.3546
      6 H          -0.0034   -2.1157   -0.0003 H       1  LIG1        0.1656
      7 H           2.3167   -0.8373    0.0007 H       1  LIG1        0.0845
      8 O           1.4918    2.0165   -0.0003 O.3     1  LIG1       -0.4900
      9 C           2.8590    1.5971   -0.0003 C.3     1  LIG1        0.0790
     10 H           3.4958    2.4569   -0.0003 H       1  LIG1        0.0660
     11 H           3.0520    1.0102    0.8734 H       1  LIG1        0.0660
     12 H           3.0520    1.0102   -0.8739 H       1  LIG1        0.0660
     13 O          -1.4853    2.0212    0.0010 O.3     1  LIG1       -0.4895
     14 C          -0.6829    3.2049    0.0012 C.3     1  LIG1        0.0791
     15 H          -1.3178    4.0662    0.0016 H       1  LIG1        0.0660
     16 H          -0.0650    3.2168    0.8747 H       1  LIG1        0.0660
     17 H          -0.0654    3.2174   -0.8726 H       1  LIG1        0.0660
     18 C          -2.8024   -1.4897    1.1485 C.ar    1  LIG1        0.0345
     19 C          -4.1045   -2.0236    1.0978 C.ar    1  LIG1       -0.0314
     20 C          -2.3194   -0.8299   -0.0001 C.ar    1  LIG1        0.0239
     21 C          -4.8929   -1.9064   -0.0447 C.ar    1  LIG1        0.0025
     22 H          -4.4968   -2.5368    1.9729 H       1  LIG1        0.0643
     23 C          -3.1060   -0.7126   -1.1409 C.ar    1  LIG1       -0.0328
     24 C          -4.3973   -1.2494   -1.1716 C.ar    1  LIG1        0.0602
     25 H          -2.7109   -0.1993   -2.0139 H       1  LIG1        0.0638
     26 N          -2.1148   -1.6304    2.2428 N.pl3   1  LIG1       -0.3574
     27 H          -1.7135   -2.5460    2.2689 H       1  LIG1        0.1423
     28 H          -1.3860   -0.9462    2.2689 H       1  LIG1        0.1423
     29 N          -5.7725   -1.0375   -3.1840 N.1     1  LIG1       -0.1908
     30 C          -5.1281   -1.1368   -2.2409 C.1     1  LIG1        0.0998
     31 C          -7.1441   -1.7057   -0.6739 C.ar    1  LIG1        0.0603
     32 C          -8.4235   -2.2942   -0.6588 C.ar    1  LIG1       -0.0313
     33 C          -6.0909   -2.4111   -0.0568 C.ar    1  LIG1        0.0025
     34 C          -8.6464   -3.5307   -0.0571 C.ar    1  LIG1        0.0395
     35 H          -9.2504   -1.7669   -1.1291 H       1  LIG1        0.0638
     36 C          -6.3128   -3.6455    0.5440 C.ar    1  LIG1       -0.0314
     37 C          -7.5909   -4.2139    0.5482 C.ar    1  LIG1        0.0360
     38 H          -5.4843   -4.1699    1.0133 H       1  LIG1        0.0643
     39 N          -6.8695    0.4694   -1.7600 N.1     1  LIG1       -0.1908
     40 C          -6.9982   -0.5500   -1.2510 C.1     1  LIG1        0.0998
     41 N          -7.7925   -5.3681    1.1115 N.pl3   1  LIG1       -0.3574
     42 H          -8.6836   -5.7248    0.8311 H       1  LIG1        0.1423
     43 H          -7.0750   -6.0057    0.8310 H       1  LIG1        0.1423
     44 C          -9.8403   -4.0449   -0.0618 C.ar    1  LIG1        0.1431
     45 C         -10.3780   -5.2801   -0.3592 C.ar    1  LIG1        0.0368
     46 C         -11.8070   -5.1713   -0.1517 C.ar    1  LIG1        0.1580
     47 C         -12.0478   -3.8763    0.2590 C.ar    1  LIG1        0.1341
     48 O         -10.8508   -3.1622    0.3222 O.2     1  LIG1       -0.4589
     49 H         -13.1014   -3.1905    0.5902 H       1  LIG1        0.1068
     50 C          -9.7488   -6.3485   -0.7509 C.3     1  LIG1       -0.0326
     51 H          -8.7463   -6.3292   -0.3774 H       1  LIG1        0.0280
     52 H          -9.7304   -6.3796   -1.8204 H       1  LIG1        0.0280
     53 H         -10.2520   -7.2158   -0.3775 H       1  LIG1        0.0280
     54 O         -12.6727   -6.1254   -0.3261 O.3     1  LIG1       -0.5034
     55 H         -12.2159   -6.9686   -0.3691 H       1  LIG1        0.2923
@<TRIPOS>BOND
     1    29    30    3
     2    30    24    1
     3    25    23    1
     4    52    50    1
     5    39    40    3
     6    40    31    1
     7    24    23   ar
     8    24    21   ar
     9    23    20   ar
    10    35    32    1
    11    12     9    1
    12    17    14    1
    13    50    53    1
    14    50    51    1
    15    50    45    1
    16    31    32   ar
    17    31    33   ar
    18    32    34   ar
    19    55    54    1
    20    45    46   ar
    21    45    44   ar
    22    54    46    1
    23    46    47   ar
    24    44    34    1
    25    44    48   ar
    26    34    37   ar
    27    33    21    1
    28    33    36   ar
    29    21    19   ar
    30     2     8    1
    31     2     1   ar
    32     2     3   ar
    33    10     9    1
    34     9     8    1
    35     9    11    1
    36     6     5    1
    37     4    20    1
    38     4     5   ar
    39     4     3   ar
    40    20    18   ar
    41     5     1   ar
    42     1     7    1
    43     3    13    1
    44    13    14    1
    45    14    15    1
    46    14    16    1
    47    47    48   ar
    48    47    49    1
    49    36    37   ar
    50    36    38    1
    51    37    41    1
    52    43    41    1
    53    42    41    1
    54    19    18   ar
    55    19    22    1
    56    18    26    1
    57    26    27    1
    58    26    28    1
