@<TRIPOS>MOLECULE
mol_data/noopt/geoms/mol2/13ll12fd13li-12di-.out
 53 56 0 0 0
SMALL
GASTEIGER

@<TRIPOS>ATOM
      1 C           1.1215   -0.3259    0.0002 C.ar    1  LIG1        0.0482
      2 C           0.7176    0.9721   -0.0005 C.ar    1  LIG1        0.1795
      3 C          -0.7144    0.9744    0.0003 C.ar    1  LIG1        0.1900
      4 C          -1.1226   -0.3223   -0.0003 C.ar    1  LIG1        0.1317
      5 N          -0.0018   -1.1217    0.0001 N.ar    1  LIG1       -0.3521
      6 H          -0.0034   -2.1157   -0.0003 H       1  LIG1        0.1656
      7 H           2.3167   -0.8373    0.0007 H       1  LIG1        0.0845
      8 O           1.4918    2.0165   -0.0003 O.3     1  LIG1       -0.4900
      9 C           2.8590    1.5971   -0.0003 C.3     1  LIG1        0.0790
     10 H           3.4958    2.4569   -0.0003 H       1  LIG1        0.0660
     11 H           3.0520    1.0102    0.8734 H       1  LIG1        0.0660
     12 H           3.0520    1.0102   -0.8739 H       1  LIG1        0.0660
     13 O          -1.4853    2.0212    0.0010 O.3     1  LIG1       -0.4894
     14 C          -0.6829    3.2049    0.0012 C.3     1  LIG1        0.0791
     15 H          -1.3178    4.0662    0.0016 H       1  LIG1        0.0660
     16 H          -0.0650    3.2168    0.8747 H       1  LIG1        0.0660
     17 H          -0.0654    3.2174   -0.8726 H       1  LIG1        0.0660
     18 C          -2.3194   -0.8299   -0.0001 C.ar    1  LIG1        0.1970
     19 C          -3.6024   -0.3233    0.0148 C.ar    1  LIG1        0.1701
     20 C          -4.4979   -1.4613    0.0044 C.ar    1  LIG1        0.0677
     21 C          -3.7022   -2.5883   -0.0164 C.ar    1  LIG1        0.1642
     22 O          -2.3551   -2.2249   -0.0196 O.2     1  LIG1       -0.4475
     23 O          -3.9648    0.9250    0.0347 O.3     1  LIG1       -0.5029
     24 H          -4.9232    0.9804    0.0395 H       1  LIG1        0.2923
     25 N          -6.9420   -1.3527    0.0208 N.3     1  LIG1       -0.2405
     26 C          -5.7965   -1.4036    0.0131 C.3     1  LIG1        0.1167
     27 C          -3.9133   -3.8710   -0.0331 C.ar    1  LIG1        0.1255
     28 C          -5.0771   -4.5734   -0.0282 C.ar    1  LIG1        0.1524
     29 C          -4.7373   -5.9643   -0.0528 C.ar    1  LIG1        0.0203
     30 C          -3.3807   -6.0506   -0.0734 C.ar    1  LIG1        0.0904
     31 N          -2.8723   -4.7713   -0.0610 N.ar    1  LIG1       -0.3462
     32 H          -1.9068   -4.5352   -0.0712 H       1  LIG1        0.1662
     33 O          -6.2761   -4.0714   -0.0039 O.3     1  LIG1       -0.4861
     34 C          -6.1956   -2.6437    0.0049 C.3     1  LIG1        0.1236
     35 H          -7.1825   -2.2309    0.0247 H       1  LIG1        0.1417
     36 H          -5.6571   -2.3221    0.8719 H       1  LIG1        0.0731
     37 H          -5.6869   -2.3096   -0.8751 H       1  LIG1        0.0731
     38 C          -5.5697   -6.9632   -0.0554 C.3     1  LIG1       -0.0341
     39 H          -5.1275   -7.7973    0.4482 H       1  LIG1        0.0279
     40 H          -5.7967   -7.2357   -1.0650 H       1  LIG1        0.0279
     41 H          -6.4699   -6.6787    0.4482 H       1  LIG1        0.0279
     42 C          -2.6020   -7.0912   -0.0995 C.ar    1  LIG1        0.1688
     43 C          -2.7875   -8.4580   -0.1192 C.ar    1  LIG1        0.1017
     44 C          -1.4686   -9.0553   -0.1446 C.ar    1  LIG1        0.0054
     45 C          -0.5642   -8.0134   -0.1389 C.ar    1  LIG1        0.0968
     46 O          -1.2389   -6.7923   -0.1113 O.2     1  LIG1       -0.4599
     47 H           0.7317   -7.9116   -0.1528 H       1  LIG1        0.1032
     48 N          -4.9060   -9.6819   -0.1132 N.1     1  LIG1       -0.1907
     49 C          -3.9132   -9.1083   -0.1160 C.1     1  LIG1        0.1033
     50 C          -1.2144  -10.3303   -0.1682 C.3     1  LIG1       -0.0355
     51 H          -0.2861  -10.5182    0.3297 H       1  LIG1        0.0279
     52 H          -1.1482  -10.6622   -1.1833 H       1  LIG1        0.0279
     53 H          -1.9998  -10.8598    0.3297 H       1  LIG1        0.0279
@<TRIPOS>BOND
     1    52    50    1
     2    40    38    1
     3    37    34    1
     4    12     9    1
     5    17    14    1
     6    50    44    1
     7    50    53    1
     8    50    51    1
     9    47    45    1
    10    44    45   ar
    11    44    43   ar
    12    45    46   ar
    13    43    49    1
    14    43    42   ar
    15    49    48    3
    16    46    42   ar
    17    42    30    1
    18    30    31   ar
    19    30    29   ar
    20    32    31    1
    21    31    27   ar
    22    38    29    1
    23    38    41    1
    24    38    39    1
    25    29    28   ar
    26    27    28   ar
    27    27    21    1
    28    28    33    1
    29    22    21   ar
    30    22    18   ar
    31    21    20   ar
    32    33    34    1
    33     2     8    1
    34     2     1   ar
    35     2     3   ar
    36    10     9    1
    37     9     8    1
    38     9    11    1
    39     6     5    1
    40     4    18    1
    41     4     5   ar
    42     4     3   ar
    43    18    19   ar
    44     5     1   ar
    45     1     7    1
    46     3    13    1
    47    13    14    1
    48    14    15    1
    49    14    16    1
    50    20    26    1
    51    20    19   ar
    52    34    36    1
    53    26    25    1
    54    19    23    1
    55    25    35    1
    56    23    24    1
