@<TRIPOS>MOLECULE
mol_data/noopt/geoms/mol2/2.out
 6 5 0 0 0
SMALL
GASTEIGER

@<TRIPOS>ATOM
      1 C           0.0000    0.0000    0.0000 C.2     1  LIG1       -0.1058
      2 H           1.0867    0.0000    0.0000 H       1  LIG1        0.0529
      3 C          -0.6771    1.1717    0.0000 C.2     1  LIG1       -0.1058
      4 H          -1.7636    1.1457    0.0015 H       1  LIG1        0.0529
      5 H          -0.1596    2.3642   -0.0006 H       1  LIG1        0.0529
      6 H          -0.5152   -1.1936    0.0000 H       1  LIG1        0.0529
@<TRIPOS>BOND
     1     5     3    1
     2     1     2    1
     3     1     3    2
     4     1     6    1
     5     3     4    1
