@<TRIPOS>MOLECULE
mol_data/noopt/geoms/mol2/22-.out
 10 9 0 0 0
SMALL
GASTEIGER

@<TRIPOS>ATOM
      1 C           0.0000    0.0000    0.0000 C.3     1  LIG1       -0.0313
      2 H           1.0867    0.0000    0.0000 H       1  LIG1        0.0310
      3 C          -0.6771    1.1717    0.0000 C.2     1  LIG1       -0.0876
      4 H          -1.7636    1.1457    0.0015 H       1  LIG1        0.0569
      5 H          -0.5152   -1.1936    0.0000 H       1  LIG1        0.0310
      6 C          -0.1596    2.3643   -0.0006 C.2     1  LIG1       -0.0876
      7 H          -0.9034    3.1565   -0.0009 H       1  LIG1        0.0569
      8 C           1.1581    2.6727   -0.0009 C.3     1  LIG1       -0.0313
      9 H           1.8828    1.8628    0.0009 H       1  LIG1        0.0310
     10 H           1.6733    3.8662   -0.0021 H       1  LIG1        0.0310
@<TRIPOS>BOND
     1    10     8    1
     2     7     6    1
     3     8     6    1
     4     8     9    1
     5     6     3    2
     6     1     2    1
     7     1     3    1
     8     1     5    1
     9     3     4    1
