@<TRIPOS>MOLECULE
mol_data/noopt/geoms/mol2/22-22.out
 18 17 0 0 0
SMALL
GASTEIGER

@<TRIPOS>ATOM
      1 C           0.0000    0.0000    0.0000 C.3     1  LIG1       -0.0310
      2 H           1.0867    0.0000    0.0000 H       1  LIG1        0.0310
      3 C          -0.6771    1.1717    0.0000 C.2     1  LIG1       -0.0837
      4 H          -1.7636    1.1457    0.0015 H       1  LIG1        0.0572
      5 H          -0.5152   -1.1936    0.0000 H       1  LIG1        0.0310
      6 C          -0.1596    2.3643   -0.0006 C.2     1  LIG1       -0.0657
      7 H          -0.9034    3.1565   -0.0009 H       1  LIG1        0.0614
      8 C           1.1581    2.6727   -0.0009 C.2     1  LIG1       -0.0621
      9 H           1.8828    1.8628    0.0009 H       1  LIG1        0.0617
     10 C           1.6733    3.8663   -0.0021 C.2     1  LIG1       -0.0621
     11 H           2.7600    3.8663   -0.0025 H       1  LIG1        0.0617
     12 C           0.9962    5.0380   -0.0028 C.2     1  LIG1       -0.0657
     13 H          -0.0903    5.0120   -0.0009 H       1  LIG1        0.0614
     14 C           1.5137    6.2305   -0.0046 C.2     1  LIG1       -0.0837
     15 H           2.6004    6.2284   -0.0052 H       1  LIG1        0.0572
     16 C           0.8389    7.4036   -0.0057 C.3     1  LIG1       -0.0310
     17 H          -0.2476    7.3797   -0.0036 H       1  LIG1        0.0310
     18 H           1.3588    8.5950   -0.0081 H       1  LIG1        0.0310
@<TRIPOS>BOND
     1    18    16    1
     2    16    14    1
     3    16    17    1
     4    15    14    1
     5    14    12    2
     6    12    10    1
     7    12    13    1
     8    11    10    1
     9    10     8    2
    10     7     6    1
    11     8     6    1
    12     8     9    1
    13     6     3    2
    14     1     5    1
    15     1     3    1
    16     1     2    1
    17     3     4    1
