@<TRIPOS>MOLECULE
mol_data/noopt/geoms/mol2/22.out
 10 9 0 0 0
SMALL
GASTEIGER

@<TRIPOS>ATOM
      1 C           0.0000    0.0000    0.0000 C.3     1  LIG1       -0.0313
      2 H           1.0867    0.0000    0.0000 H       1  LIG1        0.0310
      3 C          -0.6771    1.1717    0.0000 C.2     1  LIG1       -0.0876
      4 H          -1.7636    1.1457    0.0015 H       1  LIG1        0.0569
      5 H          -0.5152   -1.1936    0.0000 H       1  LIG1        0.0310
      6 C          -0.1596    2.3643   -0.0006 C.2     1  LIG1       -0.0876
      7 H           0.9271    2.3622   -0.0008 H       1  LIG1        0.0569
      8 C          -0.8344    3.5373   -0.0010 C.3     1  LIG1       -0.0313
      9 H          -1.9209    3.5134    0.0007 H       1  LIG1        0.0310
     10 H          -0.3145    4.7288   -0.0022 H       1  LIG1        0.0310
@<TRIPOS>BOND
     1    10     8    1
     2     8     6    1
     3     8     9    1
     4     7     6    1
     5     6     3    2
     6     1     2    1
     7     1     3    1
     8     1     5    1
     9     3     4    1
