@<TRIPOS>MOLECULE
mol_data/noopt/geoms/mol2/222-.out
 14 13 0 0 0
SMALL
GASTEIGER

@<TRIPOS>ATOM
      1 C           0.0000    0.0000    0.0000 C.3     1  LIG1       -0.0310
      2 H           1.0867    0.0000    0.0000 H       1  LIG1        0.0310
      3 C          -0.6771    1.1717    0.0000 C.2     1  LIG1       -0.0837
      4 H          -1.7636    1.1457    0.0015 H       1  LIG1        0.0572
      5 H          -0.5152   -1.1936    0.0000 H       1  LIG1        0.0310
      6 C          -0.1596    2.3643   -0.0006 C.2     1  LIG1       -0.0660
      7 H           0.9271    2.3622   -0.0008 H       1  LIG1        0.0614
      8 C          -0.8344    3.5373   -0.0010 C.2     1  LIG1       -0.0660
      9 H          -1.9209    3.5134    0.0007 H       1  LIG1        0.0614
     10 C          -0.3145    4.7289   -0.0022 C.2     1  LIG1       -0.0837
     11 H          -1.0568    5.5226   -0.0027 H       1  LIG1        0.0572
     12 C           1.0038    5.0347   -0.0028 C.3     1  LIG1       -0.0310
     13 H           1.7269    4.2234   -0.0008 H       1  LIG1        0.0310
     14 H           1.5213    6.2272   -0.0046 H       1  LIG1        0.0310
@<TRIPOS>BOND
     1    14    12    1
     2    12    10    1
     3    12    13    1
     4    11    10    1
     5    10     8    2
     6     8     6    1
     7     8     9    1
     8     7     6    1
     9     6     3    2
    10     1     2    1
    11     1     3    1
    12     1     5    1
    13     3     4    1
