@<TRIPOS>MOLECULE
mol_data/noopt/geoms/mol2/222-2-.out
 18 17 0 0 0
SMALL
GASTEIGER

@<TRIPOS>ATOM
      1 C           0.0000    0.0000    0.0000 C.3     1  LIG1       -0.0310
      2 H           1.0867    0.0000    0.0000 H       1  LIG1        0.0310
      3 C          -0.6771    1.1717    0.0000 C.2     1  LIG1       -0.0837
      4 H          -1.7636    1.1457    0.0015 H       1  LIG1        0.0572
      5 H          -0.5152   -1.1936    0.0000 H       1  LIG1        0.0310
      6 C          -0.1596    2.3643   -0.0006 C.2     1  LIG1       -0.0657
      7 H           0.9271    2.3622   -0.0008 H       1  LIG1        0.0614
      8 C          -0.8344    3.5373   -0.0010 C.2     1  LIG1       -0.0621
      9 H          -1.9209    3.5134    0.0007 H       1  LIG1        0.0617
     10 C          -0.3145    4.7289   -0.0022 C.2     1  LIG1       -0.0621
     11 H          -1.0568    5.5226   -0.0027 H       1  LIG1        0.0617
     12 C           1.0038    5.0347   -0.0028 C.2     1  LIG1       -0.0657
     13 H           1.7269    4.2234   -0.0008 H       1  LIG1        0.0614
     14 C           1.5213    6.2273   -0.0046 C.2     1  LIG1       -0.0837
     15 H           0.7775    7.0195   -0.0053 H       1  LIG1        0.0572
     16 C           2.8390    6.5356   -0.0056 C.3     1  LIG1       -0.0310
     17 H           3.5637    5.7257   -0.0034 H       1  LIG1        0.0310
     18 H           3.3542    7.7291   -0.0080 H       1  LIG1        0.0310
@<TRIPOS>BOND
     1    18    16    1
     2    16    14    1
     3    16    17    1
     4    15    14    1
     5    14    12    2
     6    12    10    1
     7    12    13    1
     8    11    10    1
     9    10     8    2
    10     8     6    1
    11     8     9    1
    12     7     6    1
    13     6     3    2
    14     1     5    1
    15     1     3    1
    16     1     2    1
    17     3     4    1
