@<TRIPOS>MOLECULE
mol_data/noopt/geoms/mol2/3.out
 4 3 0 0 0
SMALL
GASTEIGER

@<TRIPOS>ATOM
      1 C           0.8021    0.0590   -0.0002 C.1     1  LIG1       -0.1225
      2 C           1.6084    1.1458   -0.0004 C.1     1  LIG1       -0.1225
      3 H           2.3830    2.1898   -0.0007 H       1  LIG1        0.1225
      4 H           0.0274   -0.9850    0.0000 H       1  LIG1        0.1225
@<TRIPOS>BOND
     1     3     2    1
     2     2     1    3
     3     1     4    1
