@<TRIPOS>MOLECULE
mol_data/noopt/geoms/mol2/33.out
 6 5 0 0 0
SMALL
GASTEIGER

@<TRIPOS>ATOM
      1 C           0.8021    0.0590   -0.0002 C.3     1  LIG1        0.0502
      2 C           1.6084    1.1458   -0.0004 C.1     1  LIG1       -0.0960
      3 H           0.0274   -0.9850    0.0000 H       1  LIG1        0.0458
      4 C           2.3830    2.1898   -0.0007 C.1     1  LIG1       -0.0960
      5 C           3.1893    3.2767   -0.0010 C.3     1  LIG1        0.0502
      6 H           3.9638    4.3207   -0.0014 H       1  LIG1        0.0458
@<TRIPOS>BOND
     1     6     5    1
     2     5     4    1
     3     4     2    3
     4     2     1    1
     5     1     3    1
