@<TRIPOS>MOLECULE
mol_data/noopt/geoms/mol2/333.out
 8 7 0 0 0
SMALL
GASTEIGER

@<TRIPOS>ATOM
      1 C           0.8021    0.0590   -0.0002 C.3     1  LIG1        0.0512
      2 C           1.6084    1.1458   -0.0004 C.1     1  LIG1       -0.0825
      3 H           0.0274   -0.9850    0.0000 H       1  LIG1        0.0458
      4 C           2.3830    2.1898   -0.0007 C.1     1  LIG1       -0.0145
      5 C           3.1893    3.2767   -0.0010 C.1     1  LIG1       -0.0145
      6 C           3.9638    4.3208   -0.0014 C.1     1  LIG1       -0.0825
      7 C           4.7700    5.4077   -0.0018 C.3     1  LIG1        0.0512
      8 H           5.5445    6.4518   -0.0023 H       1  LIG1        0.0458
@<TRIPOS>BOND
     1     8     7    1
     2     7     6    1
     3     6     5    3
     4     5     4    1
     5     4     2    3
     6     2     1    1
     7     1     3    1
