@<TRIPOS>MOLECULE
mol_data/noopt/geoms/mol2/3333.out
 10 9 0 0 0
SMALL
GASTEIGER

@<TRIPOS>ATOM
      1 C           0.8021    0.0590   -0.0002 C.3     1  LIG1        0.0512
      2 C           1.6084    1.1458   -0.0004 C.1     1  LIG1       -0.0825
      3 H           0.0274   -0.9850    0.0000 H       1  LIG1        0.0458
      4 C           2.3830    2.1898   -0.0007 C.1     1  LIG1       -0.0135
      5 C           3.1893    3.2767   -0.0010 C.1     1  LIG1       -0.0010
      6 C           3.9638    4.3208   -0.0014 C.1     1  LIG1       -0.0010
      7 C           4.7700    5.4077   -0.0018 C.1     1  LIG1       -0.0135
      8 C           5.5445    6.4518   -0.0023 C.1     1  LIG1       -0.0825
      9 C           6.3506    7.5388   -0.0028 C.3     1  LIG1        0.0512
     10 H           7.1250    8.5829   -0.0034 H       1  LIG1        0.0458
@<TRIPOS>BOND
     1    10     9    1
     2     9     8    1
     3     8     7    3
     4     7     6    1
     5     6     5    3
     6     5     4    1
     7     4     2    3
     8     2     1    1
     9     1     3    1
