@<TRIPOS>MOLECULE
mol_data/noopt/geoms/mol2/412-13.out
 27 29 0 0 0
SMALL
GASTEIGER

@<TRIPOS>ATOM
      1 C           0.0509    0.0309    0.0002 C.ar    1  LIG1       -0.0611
      2 C           1.4592    0.0309    0.0002 C.ar    1  LIG1       -0.0511
      3 C          -0.6045    1.2792    0.0002 C.ar    1  LIG1       -0.0617
      4 C           2.1849    1.2200   -0.0004 C.ar    1  LIG1        0.0173
      5 H           1.9850   -0.9213    0.0004 H       1  LIG1        0.0625
      6 C           0.1195    2.4666   -0.0004 C.ar    1  LIG1       -0.0611
      7 C           1.5181    2.4458   -0.0008 C.ar    1  LIG1       -0.0511
      8 H          -0.4090    3.4165   -0.0003 H       1  LIG1        0.0618
      9 H          -1.9035    1.3287    0.0016 H       1  LIG1        0.0618
     10 H          -0.5708   -1.1108    0.0005 H       1  LIG1        0.0618
     11 H           2.1896    3.5590   -0.0012 H       1  LIG1        0.0625
     12 C           3.4844    1.1831   -0.0005 C.ar    1  LIG1        0.1358
     13 C           4.4948    2.1223   -0.0006 C.ar    1  LIG1       -0.0152
     14 C           5.7432    1.3884   -0.0007 C.ar    1  LIG1       -0.0138
     15 C           5.4126    0.0489   -0.0006 C.ar    1  LIG1        0.1517
     16 O           4.0256   -0.1033   -0.0004 O.2     1  LIG1       -0.4534
     17 H           4.3777    3.4170   -0.0006 H       1  LIG1        0.0656
     18 H           6.9317    1.9152   -0.0007 H       1  LIG1        0.0656
     19 C           6.0763   -1.0689   -0.0007 C.ar    1  LIG1        0.0821
     20 C           5.6370   -2.3554   -0.0011 C.ar    1  LIG1       -0.0334
     21 C           6.7921   -3.2017    0.0002 C.ar    1  LIG1       -0.0437
     22 C           7.8865   -2.3952   -0.0005 C.ar    1  LIG1        0.0023
     23 N           7.4527   -1.0887   -0.0005 N.ar    1  LIG1       -0.3583
     24 H           8.0402   -0.2869   -0.0010 H       1  LIG1        0.1654
     25 H           9.1524   -2.6911    0.0000 H       1  LIG1        0.0807
     26 H           4.3959   -2.7422   -0.0010 H       1  LIG1        0.0640
     27 H           6.7974   -4.5017    0.0012 H       1  LIG1        0.0633
@<TRIPOS>BOND
     1    11     7    1
     2    20    26    1
     3    20    19   ar
     4    20    21   ar
     5    24    23    1
     6     7     6   ar
     7     7     4   ar
     8    18    14    1
     9    14    15   ar
    10    14    13   ar
    11    19    15    1
    12    19    23   ar
    13    17    13    1
    14    15    16   ar
    15    13    12   ar
    16    23    22   ar
    17    12     4    1
    18    12    16   ar
    19    22    25    1
    20    22    21   ar
    21     6     8    1
    22     6     3   ar
    23     4     2   ar
    24    21    27    1
    25     1     3   ar
    26     1     2   ar
    27     1    10    1
    28     3     9    1
    29     2     5    1
