@<TRIPOS>MOLECULE
mol_data/noopt/geoms/mol2/412-5-8-.out
 32 35 0 0 0
SMALL
GASTEIGER

@<TRIPOS>ATOM
      1 C           0.0509    0.0309    0.0002 C.ar    1  LIG1       -0.0611
      2 C           1.4592    0.0309    0.0002 C.ar    1  LIG1       -0.0511
      3 C          -0.6045    1.2792    0.0002 C.ar    1  LIG1       -0.0617
      4 C           2.1849    1.2200   -0.0004 C.ar    1  LIG1        0.0173
      5 H           1.9850   -0.9213    0.0004 H       1  LIG1        0.0625
      6 C           0.1195    2.4666   -0.0004 C.ar    1  LIG1       -0.0611
      7 C           1.5181    2.4458   -0.0008 C.ar    1  LIG1       -0.0511
      8 H          -0.4090    3.4165   -0.0003 H       1  LIG1        0.0618
      9 H          -1.9035    1.3287    0.0016 H       1  LIG1        0.0618
     10 H          -0.5708   -1.1108    0.0005 H       1  LIG1        0.0618
     11 H           2.1896    3.5590   -0.0012 H       1  LIG1        0.0625
     12 C           3.4844    1.1831   -0.0005 C.ar    1  LIG1        0.1357
     13 C           4.4948    2.1223   -0.0006 C.ar    1  LIG1       -0.0152
     14 C           5.7432    1.3884   -0.0007 C.ar    1  LIG1       -0.0147
     15 C           5.4126    0.0489   -0.0006 C.ar    1  LIG1        0.1422
     16 O           4.0256   -0.1033   -0.0004 O.2     1  LIG1       -0.4543
     17 H           4.3777    3.4170   -0.0006 H       1  LIG1        0.0656
     18 H           6.9317    1.9152   -0.0007 H       1  LIG1        0.0656
     19 C           6.0762   -1.0689   -0.0007 C.ar    1  LIG1        0.0551
     20 C           7.4483   -1.1885   -0.0006 C.ar    1  LIG1       -0.0433
     21 C           7.8560   -2.5614    0.0001 C.ar    1  LIG1       -0.0431
     22 C           6.7717   -3.4104   -0.0004 C.ar    1  LIG1        0.0605
     23 S           5.3291   -2.5649   -0.0008 S.2     1  LIG1       -0.0820
     24 H           8.2898   -0.1976   -0.0008 H       1  LIG1        0.0630
     25 H           9.1020   -2.9323    0.0010 H       1  LIG1        0.0630
     26 C           6.8257   -4.7093   -0.0006 C.ar    1  LIG1        0.2099
     27 N           8.0672   -5.2671   -0.0007 N.ar    1  LIG1       -0.1253
     28 C           6.9374   -7.4027   -0.0010 C.ar    1  LIG1        0.1605
     29 N           5.6345   -5.3682   -0.0007 N.ar    1  LIG1       -0.1253
     30 N           8.1057   -6.6161   -0.0009 N.ar    1  LIG1       -0.1339
     31 N           5.7081   -6.7157   -0.0008 N.ar    1  LIG1       -0.1339
     32 H           6.9914   -8.7016   -0.0012 H       1  LIG1        0.1085
@<TRIPOS>BOND
     1    32    28    1
     2    11     7    1
     3    28    30   ar
     4    28    31   ar
     5    30    27   ar
     6    24    20    1
     7     7     4   ar
     8     7     6   ar
     9    31    29   ar
    10    23    19   ar
    11    23    22   ar
    12    18    14    1
    13    29    26   ar
    14    27    26   ar
    15    14    15   ar
    16    14    13   ar
    17    19    15    1
    18    19    20   ar
    19    17    13    1
    20    15    16   ar
    21    26    22    1
    22    20    21   ar
    23    13    12   ar
    24    12     4    1
    25    12    16   ar
    26     4     2   ar
    27     6     8    1
    28     6     3   ar
    29    22    21   ar
    30    21    25    1
    31     2     1   ar
    32     2     5    1
    33     3     1   ar
    34     3     9    1
    35     1    10    1
