@<TRIPOS>MOLECULE
mol_data/noopt/geoms/mol2/412-4.out
 29 31 0 0 0
SMALL
GASTEIGER

@<TRIPOS>ATOM
      1 C           0.0509    0.0309    0.0002 C.ar    1  LIG1       -0.0611
      2 C           1.4592    0.0309    0.0002 C.ar    1  LIG1       -0.0511
      3 C          -0.6045    1.2792    0.0002 C.ar    1  LIG1       -0.0617
      4 C           2.1849    1.2200   -0.0004 C.ar    1  LIG1        0.0173
      5 H           1.9850   -0.9213    0.0004 H       1  LIG1        0.0625
      6 C           0.1195    2.4666   -0.0004 C.ar    1  LIG1       -0.0611
      7 C           1.5181    2.4458   -0.0008 C.ar    1  LIG1       -0.0511
      8 H          -0.4090    3.4165   -0.0003 H       1  LIG1        0.0618
      9 H          -1.9035    1.3287    0.0016 H       1  LIG1        0.0618
     10 H          -0.5708   -1.1108    0.0005 H       1  LIG1        0.0618
     11 H           2.1896    3.5590   -0.0012 H       1  LIG1        0.0625
     12 C           3.4844    1.1831   -0.0005 C.ar    1  LIG1        0.1357
     13 C           4.4948    2.1223   -0.0006 C.ar    1  LIG1       -0.0153
     14 C           5.7432    1.3884   -0.0007 C.ar    1  LIG1       -0.0153
     15 C           5.4126    0.0489   -0.0006 C.ar    1  LIG1        0.1357
     16 O           4.0256   -0.1033   -0.0004 O.2     1  LIG1       -0.4548
     17 H           4.3777    3.4170   -0.0006 H       1  LIG1        0.0656
     18 H           6.9317    1.9152   -0.0007 H       1  LIG1        0.0656
     19 C           5.3837   -2.2970    0.0001 C.ar    1  LIG1       -0.0511
     20 C           6.1482   -3.4797    0.0015 C.ar    1  LIG1       -0.0611
     21 C           6.0762   -1.0689   -0.0007 C.ar    1  LIG1        0.0173
     22 C           7.5408   -3.4436    0.0016 C.ar    1  LIG1       -0.0617
     23 H           5.6340   -4.4382    0.0023 H       1  LIG1        0.0618
     24 C           7.4665   -1.0323   -0.0006 C.ar    1  LIG1       -0.0511
     25 C           8.2083   -2.2181    0.0005 C.ar    1  LIG1       -0.0611
     26 H           7.9773   -0.0728   -0.0010 H       1  LIG1        0.0625
     27 H           8.2153   -4.5549    0.0028 H       1  LIG1        0.0618
     28 H           4.0874   -2.3946   -0.0002 H       1  LIG1        0.0625
     29 H           9.5076   -2.1777    0.0007 H       1  LIG1        0.0618
@<TRIPOS>BOND
     1    11     7    1
     2    26    24    1
     3     7     6   ar
     4     7     4   ar
     5    18    14    1
     6    14    15   ar
     7    14    13   ar
     8    21    15    1
     9    21    24   ar
    10    21    19   ar
    11    17    13    1
    12    15    16   ar
    13    24    25   ar
    14    13    12   ar
    15    12     4    1
    16    12    16   ar
    17     6     8    1
    18     6     3   ar
    19     4     2   ar
    20    28    19    1
    21    19    20   ar
    22     1     3   ar
    23     1     2   ar
    24     1    10    1
    25     3     9    1
    26     2     5    1
    27    25    29    1
    28    25    22   ar
    29    20    22   ar
    30    20    23    1
    31    22    27    1
