@<TRIPOS>MOLECULE
mol_data/noopt/geoms/mol2/412-.out
 19 20 0 0 0
SMALL
GASTEIGER

@<TRIPOS>ATOM
      1 C           0.0509    0.0309    0.0002 C.ar    1  LIG1       -0.0611
      2 C           1.4592    0.0309    0.0002 C.ar    1  LIG1       -0.0511
      3 C          -0.6045    1.2792    0.0002 C.ar    1  LIG1       -0.0617
      4 C           2.1849    1.2200   -0.0004 C.ar    1  LIG1        0.0172
      5 H           1.9850   -0.9213    0.0004 H       1  LIG1        0.0625
      6 C           0.1195    2.4666   -0.0004 C.ar    1  LIG1       -0.0611
      7 C           1.5181    2.4458   -0.0008 C.ar    1  LIG1       -0.0511
      8 H          -0.4090    3.4165   -0.0003 H       1  LIG1        0.0618
      9 H          -1.9035    1.3287    0.0016 H       1  LIG1        0.0618
     10 H          -0.5708   -1.1108    0.0005 H       1  LIG1        0.0618
     11 H           2.1896    3.5590   -0.0012 H       1  LIG1        0.0625
     12 C           3.4844    1.1831   -0.0005 C.ar    1  LIG1        0.1348
     13 C           4.4948    2.1223   -0.0006 C.ar    1  LIG1       -0.0159
     14 C           5.7432    1.3884   -0.0007 C.ar    1  LIG1       -0.0233
     15 C           5.4126    0.0489   -0.0006 C.ar    1  LIG1        0.0926
     16 O           4.0256   -0.1033   -0.0004 O.2     1  LIG1       -0.4629
     17 H           6.0762   -1.0689   -0.0007 H       1  LIG1        0.1029
     18 H           4.3777    3.4170   -0.0006 H       1  LIG1        0.0655
     19 H           6.9317    1.9152   -0.0007 H       1  LIG1        0.0649
@<TRIPOS>BOND
     1    11     7    1
     2     7     4   ar
     3     7     6   ar
     4    19    14    1
     5    14    15   ar
     6    14    13   ar
     7    17    15    1
     8    18    13    1
     9    15    16   ar
    10    13    12   ar
    11    12     4    1
    12    12    16   ar
    13     4     2   ar
    14     6     8    1
    15     6     3   ar
    16     1     3   ar
    17     1     2   ar
    18     1    10    1
    19     3     9    1
    20     2     5    1
