@<TRIPOS>MOLECULE
mol_data/noopt/geoms/mol2/412-12-13.out
 34 37 0 0 0
SMALL
GASTEIGER

@<TRIPOS>ATOM
      1 C           0.0509    0.0309    0.0002 C.ar    1  LIG1       -0.0611
      2 C           1.4592    0.0309    0.0002 C.ar    1  LIG1       -0.0511
      3 C          -0.6045    1.2792    0.0002 C.ar    1  LIG1       -0.0617
      4 C           2.1849    1.2200   -0.0004 C.ar    1  LIG1        0.0173
      5 H           1.9850   -0.9213    0.0004 H       1  LIG1        0.0625
      6 C           0.1195    2.4666   -0.0004 C.ar    1  LIG1       -0.0611
      7 C           1.5181    2.4458   -0.0008 C.ar    1  LIG1       -0.0511
      8 H          -0.4090    3.4165   -0.0003 H       1  LIG1        0.0618
      9 H          -1.9035    1.3287    0.0016 H       1  LIG1        0.0618
     10 H          -0.5708   -1.1108    0.0005 H       1  LIG1        0.0618
     11 H           2.1896    3.5590   -0.0012 H       1  LIG1        0.0625
     12 C           3.4844    1.1831   -0.0005 C.ar    1  LIG1        0.1358
     13 C           4.4948    2.1223   -0.0006 C.ar    1  LIG1       -0.0151
     14 C           5.7432    1.3884   -0.0007 C.ar    1  LIG1       -0.0122
     15 C           5.4126    0.0489   -0.0006 C.ar    1  LIG1        0.1706
     16 O           4.0256   -0.1033   -0.0004 O.2     1  LIG1       -0.4517
     17 H           4.3777    3.4170   -0.0006 H       1  LIG1        0.0656
     18 H           6.9317    1.9152   -0.0007 H       1  LIG1        0.0657
     19 C           6.0762   -1.0689   -0.0007 C.ar    1  LIG1        0.1706
     20 C           7.4102   -1.4206   -0.0007 C.ar    1  LIG1       -0.0121
     21 C           7.4576   -2.8679   -0.0008 C.ar    1  LIG1       -0.0137
     22 C           6.1488   -3.3048   -0.0007 C.ar    1  LIG1        0.1519
     23 O           5.2786   -2.2141   -0.0005 O.2     1  LIG1       -0.4503
     24 H           8.4416   -0.6294   -0.0008 H       1  LIG1        0.0657
     25 H           8.5382   -3.5906   -0.0008 H       1  LIG1        0.0656
     26 C           5.5591   -4.4634   -0.0008 C.ar    1  LIG1        0.0821
     27 C           4.2371   -4.7801   -0.0012 C.ar    1  LIG1       -0.0334
     28 C           4.1396   -6.2087    0.0001 C.ar    1  LIG1       -0.0437
     29 C           5.4063   -6.7023   -0.0006 C.ar    1  LIG1        0.0023
     30 N           6.2785   -5.6371   -0.0006 N.ar    1  LIG1       -0.3583
     31 H           7.2701   -5.7048   -0.0011 H       1  LIG1        0.1654
     32 H           5.8332   -7.9302   -0.0001 H       1  LIG1        0.0807
     33 H           3.2466   -3.9381   -0.0011 H       1  LIG1        0.0640
     34 H           3.0439   -6.9083    0.0012 H       1  LIG1        0.0633
@<TRIPOS>BOND
     1    11     7    1
     2    27    33    1
     3    27    26   ar
     4    27    28   ar
     5    31    30    1
     6    25    21    1
     7     7     6   ar
     8     7     4   ar
     9    21    22   ar
    10    21    20   ar
    11    26    22    1
    12    26    30   ar
    13    24    20    1
    14    18    14    1
    15    22    23   ar
    16    20    19   ar
    17    14    15   ar
    18    14    13   ar
    19    19    15    1
    20    19    23   ar
    21    17    13    1
    22    30    29   ar
    23    15    16   ar
    24    29    32    1
    25    29    28   ar
    26    13    12   ar
    27    12     4    1
    28    12    16   ar
    29     6     8    1
    30     6     3   ar
    31     4     2   ar
    32    28    34    1
    33     1     3   ar
    34     1     2   ar
    35     1    10    1
    36     3     9    1
    37     2     5    1
