@<TRIPOS>MOLECULE
mol_data/noopt/geoms/mol2/412-5.out
 26 28 0 0 0
SMALL
GASTEIGER

@<TRIPOS>ATOM
      1 C           0.0509    0.0309    0.0002 C.ar    1  LIG1       -0.0611
      2 C           1.4592    0.0309    0.0002 C.ar    1  LIG1       -0.0511
      3 C          -0.6045    1.2792    0.0002 C.ar    1  LIG1       -0.0617
      4 C           2.1849    1.2200   -0.0004 C.ar    1  LIG1        0.0173
      5 H           1.9850   -0.9213    0.0004 H       1  LIG1        0.0625
      6 C           0.1195    2.4666   -0.0004 C.ar    1  LIG1       -0.0611
      7 C           1.5181    2.4458   -0.0008 C.ar    1  LIG1       -0.0511
      8 H          -0.4090    3.4165   -0.0003 H       1  LIG1        0.0618
      9 H          -1.9035    1.3287    0.0016 H       1  LIG1        0.0618
     10 H          -0.5708   -1.1108    0.0005 H       1  LIG1        0.0618
     11 H           2.1896    3.5590   -0.0012 H       1  LIG1        0.0625
     12 C           3.4844    1.1831   -0.0005 C.ar    1  LIG1        0.1357
     13 C           4.4948    2.1223   -0.0006 C.ar    1  LIG1       -0.0152
     14 C           5.7432    1.3884   -0.0007 C.ar    1  LIG1       -0.0147
     15 C           5.4126    0.0489   -0.0006 C.ar    1  LIG1        0.1422
     16 O           4.0256   -0.1033   -0.0004 O.2     1  LIG1       -0.4543
     17 H           4.3777    3.4170   -0.0006 H       1  LIG1        0.0656
     18 H           6.9317    1.9152   -0.0007 H       1  LIG1        0.0656
     19 C           6.0762   -1.0689   -0.0007 C.ar    1  LIG1        0.0544
     20 C           5.5244   -2.3307   -0.0011 C.ar    1  LIG1       -0.0440
     21 C           6.5345   -3.3460   -0.0018 C.ar    1  LIG1       -0.0540
     22 C           7.7990   -2.8005   -0.0011 C.ar    1  LIG1       -0.0236
     23 S           7.7474   -1.1292   -0.0003 S.2     1  LIG1       -0.0936
     24 H           8.9136   -3.4697   -0.0009 H       1  LIG1        0.0693
     25 H           4.2515   -2.5951   -0.0010 H       1  LIG1        0.0630
     26 H           6.2636   -4.6175   -0.0030 H       1  LIG1        0.0623
@<TRIPOS>BOND
     1    26    21    1
     2    21    22   ar
     3    21    20   ar
     4    11     7    1
     5    22    24    1
     6    22    23   ar
     7    20    25    1
     8    20    19   ar
     9     7     6   ar
    10     7     4   ar
    11    18    14    1
    12    14    15   ar
    13    14    13   ar
    14    19    15    1
    15    19    23   ar
    16    17    13    1
    17    15    16   ar
    18    13    12   ar
    19    12     4    1
    20    12    16   ar
    21     6     8    1
    22     6     3   ar
    23     4     2   ar
    24     1     3   ar
    25     1     2   ar
    26     1    10    1
    27     3     9    1
    28     2     5    1
