@<TRIPOS>MOLECULE
mol_data/noopt/geoms/mol2/41213.out
 27 29 0 0 0
SMALL
GASTEIGER

@<TRIPOS>ATOM
      1 C           0.0509    0.0309    0.0002 C.ar    1  LIG1       -0.0611
      2 C           1.4592    0.0309    0.0002 C.ar    1  LIG1       -0.0511
      3 C          -0.6045    1.2792    0.0002 C.ar    1  LIG1       -0.0617
      4 C           2.1849    1.2200   -0.0004 C.ar    1  LIG1        0.0173
      5 H           1.9850   -0.9213    0.0004 H       1  LIG1        0.0625
      6 C           0.1195    2.4666   -0.0004 C.ar    1  LIG1       -0.0611
      7 C           1.5181    2.4458   -0.0008 C.ar    1  LIG1       -0.0511
      8 H          -0.4090    3.4165   -0.0003 H       1  LIG1        0.0618
      9 H          -1.9035    1.3287    0.0016 H       1  LIG1        0.0618
     10 H          -0.5708   -1.1108    0.0005 H       1  LIG1        0.0618
     11 H           2.1896    3.5590   -0.0012 H       1  LIG1        0.0625
     12 C           3.4844    1.1831   -0.0005 C.ar    1  LIG1        0.1358
     13 C           4.4399    0.1881   -0.0006 C.ar    1  LIG1       -0.0152
     14 C           5.7279    0.8499   -0.0007 C.ar    1  LIG1       -0.0138
     15 C           5.4738    2.2061   -0.0008 C.ar    1  LIG1        0.1517
     16 O           4.0977    2.4367   -0.0007 O.2     1  LIG1       -0.4534
     17 H           4.2495   -1.0979   -0.0005 H       1  LIG1        0.0656
     18 H           6.8846    0.2566   -0.0008 H       1  LIG1        0.0656
     19 C           6.1999    3.2844   -0.0008 C.ar    1  LIG1        0.0821
     20 C           7.5505    3.4383   -0.0012 C.ar    1  LIG1       -0.0334
     21 C           7.8208    4.8446    0.0001 C.ar    1  LIG1       -0.0437
     22 C           6.6234    5.4882   -0.0006 C.ar    1  LIG1        0.0023
     23 N           5.6283    4.5368   -0.0007 N.ar    1  LIG1       -0.3583
     24 H           4.6522    4.7244   -0.0012 H       1  LIG1        0.1654
     25 H           6.3487    6.7589   -0.0001 H       1  LIG1        0.0807
     26 H           8.4315    2.4823   -0.0011 H       1  LIG1        0.0640
     27 H           8.9933    5.4059    0.0011 H       1  LIG1        0.0633
@<TRIPOS>BOND
     1    20    26    1
     2    20    19   ar
     3    20    21   ar
     4    11     7    1
     5    24    23    1
     6    19    15    1
     7    19    23   ar
     8     7     6   ar
     9     7     4   ar
    10    18    14    1
    11    15    16   ar
    12    15    14   ar
    13    16    12   ar
    14    14    13   ar
    15    23    22   ar
    16    22    25    1
    17    22    21   ar
    18    13    12   ar
    19    13    17    1
    20    12     4    1
    21     6     8    1
    22     6     3   ar
    23     4     2   ar
    24    21    27    1
    25     1     3   ar
    26     1     2   ar
    27     1    10    1
    28     3     9    1
    29     2     5    1
