@<TRIPOS>MOLECULE
mol_data/noopt/geoms/mol2/41213-5.out
 34 37 0 0 0
SMALL
GASTEIGER

@<TRIPOS>ATOM
      1 C           0.0509    0.0309    0.0002 C.ar    1  LIG1       -0.0611
      2 C           1.4592    0.0309    0.0002 C.ar    1  LIG1       -0.0511
      3 C          -0.6045    1.2792    0.0002 C.ar    1  LIG1       -0.0617
      4 C           2.1849    1.2200   -0.0004 C.ar    1  LIG1        0.0173
      5 H           1.9850   -0.9213    0.0004 H       1  LIG1        0.0625
      6 C           0.1195    2.4666   -0.0004 C.ar    1  LIG1       -0.0611
      7 C           1.5181    2.4458   -0.0008 C.ar    1  LIG1       -0.0511
      8 H          -0.4090    3.4165   -0.0003 H       1  LIG1        0.0618
      9 H          -1.9035    1.3287    0.0016 H       1  LIG1        0.0618
     10 H          -0.5708   -1.1108    0.0005 H       1  LIG1        0.0618
     11 H           2.1896    3.5590   -0.0012 H       1  LIG1        0.0625
     12 C           3.4844    1.1831   -0.0005 C.ar    1  LIG1        0.1358
     13 C           4.4399    0.1881   -0.0006 C.ar    1  LIG1       -0.0152
     14 C           5.7279    0.8499   -0.0007 C.ar    1  LIG1       -0.0138
     15 C           5.4738    2.2061   -0.0008 C.ar    1  LIG1        0.1518
     16 O           4.0977    2.4367   -0.0007 O.2     1  LIG1       -0.4534
     17 H           4.2495   -1.0979   -0.0005 H       1  LIG1        0.0656
     18 H           6.8846    0.2566   -0.0008 H       1  LIG1        0.0656
     19 C           6.1999    3.2844   -0.0008 C.ar    1  LIG1        0.0826
     20 C           5.8343    4.5938   -0.0003 C.ar    1  LIG1       -0.0328
     21 C           7.0356    5.3732   -0.0018 C.ar    1  LIG1       -0.0352
     22 C           8.0824    4.5059   -0.0013 C.ar    1  LIG1        0.0536
     23 N           7.5753    3.2260   -0.0012 N.ar    1  LIG1       -0.3514
     24 H           8.1163    2.3922   -0.0007 H       1  LIG1        0.1660
     25 H           4.6172    5.0504   -0.0002 H       1  LIG1        0.0640
     26 H           7.1147    6.6708   -0.0029 H       1  LIG1        0.0639
     27 C           9.3631    4.7294   -0.0020 C.ar    1  LIG1        0.0355
     28 C          10.3467    3.7655   -0.0028 C.ar    1  LIG1       -0.0455
     29 C          11.6545    4.3493   -0.0042 C.ar    1  LIG1       -0.0541
     30 C          11.5935    5.7251   -0.0036 C.ar    1  LIG1       -0.0237
     31 S          10.0127    6.2702   -0.0021 S.2     1  LIG1       -0.0952
     32 H          12.6149    6.5294   -0.0040 H       1  LIG1        0.0693
     33 H          10.1419    2.4817   -0.0026 H       1  LIG1        0.0629
     34 H          12.7469    3.6446   -0.0059 H       1  LIG1        0.0623
@<TRIPOS>BOND
     1    34    29    1
     2    29    30   ar
     3    29    28   ar
     4    32    30    1
     5    30    31   ar
     6    26    21    1
     7    28    33    1
     8    28    27   ar
     9    31    27   ar
    10    27    22    1
    11    21    22   ar
    12    21    20   ar
    13    22    23   ar
    14    11     7    1
    15    23    19   ar
    16    23    24    1
    17    19    15    1
    18    19    20   ar
    19     7     6   ar
    20     7     4   ar
    21    18    14    1
    22    15    16   ar
    23    15    14   ar
    24    16    12   ar
    25    14    13   ar
    26    13    12   ar
    27    13    17    1
    28    12     4    1
    29     6     8    1
    30     6     3   ar
    31     4     2   ar
    32    20    25    1
    33     1     3   ar
    34     1     2   ar
    35     1    10    1
    36     3     9    1
    37     2     5    1
