@<TRIPOS>MOLECULE
mol_data/noopt/geoms/mol2/41212.out
 26 28 0 0 0
SMALL
GASTEIGER

@<TRIPOS>ATOM
      1 C           0.0509    0.0309    0.0002 C.ar    1  LIG1       -0.0611
      2 C           1.4592    0.0309    0.0002 C.ar    1  LIG1       -0.0511
      3 C          -0.6045    1.2792    0.0002 C.ar    1  LIG1       -0.0617
      4 C           2.1849    1.2200   -0.0004 C.ar    1  LIG1        0.0173
      5 H           1.9850   -0.9213    0.0004 H       1  LIG1        0.0625
      6 C           0.1195    2.4666   -0.0004 C.ar    1  LIG1       -0.0611
      7 C           1.5181    2.4458   -0.0008 C.ar    1  LIG1       -0.0511
      8 H          -0.4090    3.4165   -0.0003 H       1  LIG1        0.0618
      9 H          -1.9035    1.3287    0.0016 H       1  LIG1        0.0618
     10 H          -0.5708   -1.1108    0.0005 H       1  LIG1        0.0618
     11 H           2.1896    3.5590   -0.0012 H       1  LIG1        0.0625
     12 C           3.4844    1.1831   -0.0005 C.ar    1  LIG1        0.1358
     13 C           4.4399    0.1881   -0.0006 C.ar    1  LIG1       -0.0151
     14 C           5.7279    0.8499   -0.0007 C.ar    1  LIG1       -0.0122
     15 C           5.4738    2.2061   -0.0008 C.ar    1  LIG1        0.1705
     16 O           4.0977    2.4367   -0.0007 O.2     1  LIG1       -0.4517
     17 H           4.2495   -1.0979   -0.0005 H       1  LIG1        0.0656
     18 H           6.8846    0.2566   -0.0008 H       1  LIG1        0.0657
     19 C           6.1999    3.2844   -0.0008 C.ar    1  LIG1        0.1697
     20 C           7.5516    3.5598   -0.0008 C.ar    1  LIG1       -0.0128
     21 C           7.6810    5.0021   -0.0009 C.ar    1  LIG1       -0.0232
     22 C           6.3992    5.5126   -0.0010 C.ar    1  LIG1        0.0927
     23 O           5.4685    4.4730   -0.0010 O.2     1  LIG1       -0.4598
     24 H           5.8762    6.7027   -0.0010 H       1  LIG1        0.1029
     25 H           8.5365    2.7113   -0.0007 H       1  LIG1        0.0656
     26 H           8.8009    5.6623   -0.0009 H       1  LIG1        0.0649
@<TRIPOS>BOND
     1    11     7    1
     2    23    22   ar
     3    23    19   ar
     4    24    22    1
     5    22    21   ar
     6    26    21    1
     7    21    20   ar
     8    20    19   ar
     9    20    25    1
    10    19    15    1
    11     7     6   ar
    12     7     4   ar
    13    18    14    1
    14    15    16   ar
    15    15    14   ar
    16    16    12   ar
    17    14    13   ar
    18    13    12   ar
    19    13    17    1
    20    12     4    1
    21     6     8    1
    22     6     3   ar
    23     4     2   ar
    24     1     3   ar
    25     1     2   ar
    26     1    10    1
    27     3     9    1
    28     2     5    1
