@<TRIPOS>MOLECULE
mol_data/noopt/geoms/mol2/4124-.out
 29 31 0 0 0
SMALL
GASTEIGER

@<TRIPOS>ATOM
      1 C           0.0509    0.0309    0.0002 C.ar    1  LIG1       -0.0611
      2 C           1.4592    0.0309    0.0002 C.ar    1  LIG1       -0.0511
      3 C          -0.6045    1.2792    0.0002 C.ar    1  LIG1       -0.0617
      4 C           2.1849    1.2200   -0.0004 C.ar    1  LIG1        0.0173
      5 H           1.9850   -0.9213    0.0004 H       1  LIG1        0.0625
      6 C           0.1195    2.4666   -0.0004 C.ar    1  LIG1       -0.0611
      7 C           1.5181    2.4458   -0.0008 C.ar    1  LIG1       -0.0511
      8 H          -0.4090    3.4165   -0.0003 H       1  LIG1        0.0618
      9 H          -1.9035    1.3287    0.0016 H       1  LIG1        0.0618
     10 H          -0.5708   -1.1108    0.0005 H       1  LIG1        0.0618
     11 H           2.1896    3.5590   -0.0012 H       1  LIG1        0.0625
     12 C           3.4844    1.1831   -0.0005 C.ar    1  LIG1        0.1357
     13 C           4.4399    0.1881   -0.0006 C.ar    1  LIG1       -0.0153
     14 C           5.7279    0.8499   -0.0007 C.ar    1  LIG1       -0.0153
     15 C           5.4738    2.2061   -0.0008 C.ar    1  LIG1        0.1357
     16 O           4.0977    2.4367   -0.0007 O.2     1  LIG1       -0.4548
     17 H           4.2495   -1.0979   -0.0005 H       1  LIG1        0.0656
     18 H           6.8846    0.2566   -0.0008 H       1  LIG1        0.0656
     19 C           5.5781    4.5498   -0.0016 C.ar    1  LIG1       -0.0511
     20 C           6.4085    5.6872   -0.0032 C.ar    1  LIG1       -0.0611
     21 C           6.1998    3.2844   -0.0008 C.ar    1  LIG1        0.0173
     22 C           7.7968    5.5721   -0.0033 C.ar    1  LIG1       -0.0617
     23 H           5.9495    6.6733   -0.0040 H       1  LIG1        0.0618
     24 C           7.5858    3.1690   -0.0010 C.ar    1  LIG1       -0.0511
     25 C           8.3937    4.3108   -0.0021 C.ar    1  LIG1       -0.0611
     26 H           8.0413    2.1820   -0.0004 H       1  LIG1        0.0625
     27 H           8.5333    6.6434   -0.0047 H       1  LIG1        0.0618
     28 H           4.2894    4.7209   -0.0012 H       1  LIG1        0.0625
     29 H           9.6886    4.1967   -0.0024 H       1  LIG1        0.0618
@<TRIPOS>BOND
     1    27    22    1
     2    23    20    1
     3    22    20   ar
     4    22    25   ar
     5    20    19   ar
     6    29    25    1
     7    25    24   ar
     8    19    28    1
     9    19    21   ar
    10    11     7    1
    11    24    21   ar
    12    24    26    1
    13    21    15    1
    14     7     6   ar
    15     7     4   ar
    16    18    14    1
    17    15    16   ar
    18    15    14   ar
    19    16    12   ar
    20    14    13   ar
    21    13    12   ar
    22    13    17    1
    23    12     4    1
    24     6     8    1
    25     6     3   ar
    26     4     2   ar
    27     1     3   ar
    28     1     2   ar
    29     1    10    1
    30     3     9    1
    31     2     5    1
