@<TRIPOS>MOLECULE
mol_data/noopt/geoms/mol2/41248-.out
 35 38 0 0 0
SMALL
GASTEIGER

@<TRIPOS>ATOM
      1 C           0.0509    0.0309    0.0002 C.ar    1  LIG1       -0.0611
      2 C           1.4592    0.0309    0.0002 C.ar    1  LIG1       -0.0511
      3 C          -0.6045    1.2792    0.0002 C.ar    1  LIG1       -0.0617
      4 C           2.1849    1.2200   -0.0004 C.ar    1  LIG1        0.0173
      5 H           1.9850   -0.9213    0.0004 H       1  LIG1        0.0625
      6 C           0.1195    2.4666   -0.0004 C.ar    1  LIG1       -0.0611
      7 C           1.5181    2.4458   -0.0008 C.ar    1  LIG1       -0.0511
      8 H          -0.4090    3.4165   -0.0003 H       1  LIG1        0.0618
      9 H          -1.9035    1.3287    0.0016 H       1  LIG1        0.0618
     10 H          -0.5708   -1.1108    0.0005 H       1  LIG1        0.0618
     11 H           2.1896    3.5590   -0.0012 H       1  LIG1        0.0625
     12 C           3.4844    1.1831   -0.0005 C.ar    1  LIG1        0.1357
     13 C           4.4399    0.1881   -0.0006 C.ar    1  LIG1       -0.0153
     14 C           5.7279    0.8499   -0.0007 C.ar    1  LIG1       -0.0153
     15 C           5.4738    2.2061   -0.0008 C.ar    1  LIG1        0.1357
     16 O           4.0977    2.4367   -0.0007 O.2     1  LIG1       -0.4548
     17 H           4.2495   -1.0979   -0.0005 H       1  LIG1        0.0656
     18 H           6.8846    0.2566   -0.0008 H       1  LIG1        0.0656
     19 C           7.6062    3.1844   -0.0001 C.ar    1  LIG1       -0.0504
     20 C           8.3476    4.3817    0.0014 C.ar    1  LIG1       -0.0503
     21 C           6.1998    3.2844   -0.0008 C.ar    1  LIG1        0.0173
     22 C           7.7188    5.6247    0.0015 C.ar    1  LIG1        0.0227
     23 H           9.4340    4.3274    0.0022 H       1  LIG1        0.0625
     24 C           5.5715    4.5251   -0.0007 C.ar    1  LIG1       -0.0504
     25 C           6.3255    5.7032    0.0003 C.ar    1  LIG1       -0.0503
     26 H           4.4857    4.5759   -0.0012 H       1  LIG1        0.0625
     27 H           8.2495    2.0547   -0.0004 H       1  LIG1        0.0625
     28 H           5.7327    6.8601    0.0006 H       1  LIG1        0.0625
     29 C           8.4343    6.7101    0.0027 C.ar    1  LIG1        0.2033
     30 N           7.7531    7.8884    0.0033 N.ar    1  LIG1       -0.1258
     31 C           9.9181    8.9606    0.0053 C.ar    1  LIG1        0.1605
     32 N           9.7858    6.5483    0.0033 N.ar    1  LIG1       -0.1258
     33 N           8.5104    9.0054    0.0046 N.ar    1  LIG1       -0.1339
     34 N          10.5139    7.6846    0.0047 N.ar    1  LIG1       -0.1339
     35 H          10.6336   10.0460    0.0066 H       1  LIG1        0.1085
@<TRIPOS>BOND
     1    11     7    1
     2    26    24    1
     3    21    15    1
     4    21    24   ar
     5    21    19   ar
     6     7     6   ar
     7     7     4   ar
     8    18    14    1
     9    15    16   ar
    10    15    14   ar
    11    16    12   ar
    12    24    25   ar
    13    14    13   ar
    14    13    12   ar
    15    13    17    1
    16    12     4    1
    17     6     8    1
    18     6     3   ar
    19     4     2   ar
    20    27    19    1
    21    19    20   ar
    22     1     2   ar
    23     1     3   ar
    24     1    10    1
    25     2     5    1
    26     3     9    1
    27    25    28    1
    28    25    22   ar
    29    20    22   ar
    30    20    23    1
    31    22    29    1
    32    29    30   ar
    33    29    32   ar
    34    30    33   ar
    35    32    34   ar
    36    33    31   ar
    37    34    31   ar
    38    31    35    1
