@<TRIPOS>MOLECULE
mol_data/noopt/geoms/mol2/4128.out
 25 27 0 0 0
SMALL
GASTEIGER

@<TRIPOS>ATOM
      1 C           0.0509    0.0309    0.0002 C.ar    1  LIG1       -0.0611
      2 C           1.4592    0.0309    0.0002 C.ar    1  LIG1       -0.0511
      3 C          -0.6045    1.2792    0.0002 C.ar    1  LIG1       -0.0617
      4 C           2.1849    1.2200   -0.0004 C.ar    1  LIG1        0.0173
      5 H           1.9850   -0.9213    0.0004 H       1  LIG1        0.0625
      6 C           0.1195    2.4666   -0.0004 C.ar    1  LIG1       -0.0611
      7 C           1.5181    2.4458   -0.0008 C.ar    1  LIG1       -0.0511
      8 H          -0.4090    3.4165   -0.0003 H       1  LIG1        0.0618
      9 H          -1.9035    1.3287    0.0016 H       1  LIG1        0.0618
     10 H          -0.5708   -1.1108    0.0005 H       1  LIG1        0.0618
     11 H           2.1896    3.5590   -0.0012 H       1  LIG1        0.0625
     12 C           3.4844    1.1831   -0.0005 C.ar    1  LIG1        0.1358
     13 C           4.4399    0.1881   -0.0006 C.ar    1  LIG1       -0.0151
     14 C           5.7279    0.8499   -0.0007 C.ar    1  LIG1       -0.0120
     15 C           5.4738    2.2061   -0.0008 C.ar    1  LIG1        0.1760
     16 O           4.0977    2.4367   -0.0007 O.2     1  LIG1       -0.4516
     17 H           4.2495   -1.0979   -0.0005 H       1  LIG1        0.0656
     18 H           6.8846    0.2566   -0.0008 H       1  LIG1        0.0657
     19 C           6.1999    3.2844   -0.0008 C.ar    1  LIG1        0.2381
     20 N           7.5497    3.1096   -0.0008 N.ar    1  LIG1       -0.1226
     21 C           7.7053    5.5206   -0.0009 C.ar    1  LIG1        0.1605
     22 N           5.5300    4.4694   -0.0008 N.ar    1  LIG1       -0.1226
     23 N           8.2888    4.2387   -0.0009 N.ar    1  LIG1       -0.1338
     24 N           6.2982    5.5789   -0.0010 N.ar    1  LIG1       -0.1338
     25 H           8.4313    6.5990   -0.0010 H       1  LIG1        0.1085
@<TRIPOS>BOND
     1    11     7    1
     2    24    21   ar
     3    24    22   ar
     4    25    21    1
     5    21    23   ar
     6    23    20   ar
     7    22    19   ar
     8    20    19   ar
     9    19    15    1
    10     7     6   ar
    11     7     4   ar
    12    18    14    1
    13    15    16   ar
    14    15    14   ar
    15    16    12   ar
    16    14    13   ar
    17    13    12   ar
    18    13    17    1
    19    12     4    1
    20     6     8    1
    21     6     3   ar
    22     4     2   ar
    23     1     3   ar
    24     1     2   ar
    25     1    10    1
    26     3     9    1
    27     2     5    1
