@<TRIPOS>MOLECULE
mol_data/noopt/geoms/mol2/412812.out
 32 35 0 0 0
SMALL
GASTEIGER

@<TRIPOS>ATOM
      1 C           0.0509    0.0309    0.0002 C.ar    1  LIG1       -0.0611
      2 C           1.4592    0.0309    0.0002 C.ar    1  LIG1       -0.0511
      3 C          -0.6045    1.2792    0.0002 C.ar    1  LIG1       -0.0617
      4 C           2.1849    1.2200   -0.0004 C.ar    1  LIG1        0.0173
      5 H           1.9850   -0.9213    0.0004 H       1  LIG1        0.0625
      6 C           0.1195    2.4666   -0.0004 C.ar    1  LIG1       -0.0611
      7 C           1.5181    2.4458   -0.0008 C.ar    1  LIG1       -0.0511
      8 H          -0.4090    3.4165   -0.0003 H       1  LIG1        0.0618
      9 H          -1.9035    1.3287    0.0016 H       1  LIG1        0.0618
     10 H          -0.5708   -1.1108    0.0005 H       1  LIG1        0.0618
     11 H           2.1896    3.5590   -0.0012 H       1  LIG1        0.0625
     12 C           3.4844    1.1831   -0.0005 C.ar    1  LIG1        0.1358
     13 C           4.4399    0.1881   -0.0006 C.ar    1  LIG1       -0.0151
     14 C           5.7279    0.8499   -0.0007 C.ar    1  LIG1       -0.0120
     15 C           5.4738    2.2061   -0.0008 C.ar    1  LIG1        0.1760
     16 O           4.0977    2.4367   -0.0007 O.2     1  LIG1       -0.4516
     17 H           4.2495   -1.0979   -0.0005 H       1  LIG1        0.0656
     18 H           6.8846    0.2566   -0.0008 H       1  LIG1        0.0657
     19 C           6.1999    3.2844   -0.0008 C.ar    1  LIG1        0.2381
     20 N           7.5497    3.1096   -0.0008 N.ar    1  LIG1       -0.1219
     21 C           7.7053    5.5206   -0.0009 C.ar    1  LIG1        0.2381
     22 N           5.5300    4.4694   -0.0008 N.ar    1  LIG1       -0.1219
     23 N           8.2888    4.2387   -0.0009 N.ar    1  LIG1       -0.1219
     24 N           6.2982    5.5789   -0.0010 N.ar    1  LIG1       -0.1219
     25 C           8.4313    6.5990   -0.0010 C.ar    1  LIG1        0.1751
     26 C           9.7830    6.8744   -0.0010 C.ar    1  LIG1       -0.0126
     27 C           9.9125    8.3167   -0.0011 C.ar    1  LIG1       -0.0232
     28 C           8.6307    8.8271   -0.0011 C.ar    1  LIG1        0.0927
     29 O           7.7000    7.7876   -0.0012 O.2     1  LIG1       -0.4597
     30 H           8.1076   10.0173   -0.0012 H       1  LIG1        0.1029
     31 H          10.7679    6.0259   -0.0009 H       1  LIG1        0.0656
     32 H          11.0324    8.9768   -0.0011 H       1  LIG1        0.0649
@<TRIPOS>BOND
     1    11     7    1
     2    29    28   ar
     3    29    25   ar
     4    30    28    1
     5    28    27   ar
     6    32    27    1
     7    27    26   ar
     8    26    25   ar
     9    26    31    1
    10    24    21   ar
    11    24    22   ar
    12    25    21    1
    13    21    23   ar
    14    23    20   ar
    15    22    19   ar
    16    20    19   ar
    17    19    15    1
    18     7     6   ar
    19     7     4   ar
    20    18    14    1
    21    15    16   ar
    22    15    14   ar
    23    16    12   ar
    24    14    13   ar
    25    13    12   ar
    26    13    17    1
    27    12     4    1
    28     6     8    1
    29     6     3   ar
    30     4     2   ar
    31     1     3   ar
    32     1     2   ar
    33     1    10    1
    34     3     9    1
    35     2     5    1
