@<TRIPOS>MOLECULE
mol_data/noopt/geoms/mol2/413-4-.out
 30 32 0 0 0
SMALL
GASTEIGER

@<TRIPOS>ATOM
      1 C           0.0509    0.0309    0.0002 C.ar    1  LIG1       -0.0611
      2 C           1.4592    0.0309    0.0002 C.ar    1  LIG1       -0.0526
      3 C          -0.6045    1.2792    0.0002 C.ar    1  LIG1       -0.0617
      4 C           2.1849    1.2200   -0.0004 C.ar    1  LIG1       -0.0017
      5 H           1.9850   -0.9213    0.0004 H       1  LIG1        0.0624
      6 C           0.1195    2.4666   -0.0004 C.ar    1  LIG1       -0.0611
      7 C           1.5181    2.4458   -0.0008 C.ar    1  LIG1       -0.0526
      8 H          -0.4090    3.4165   -0.0003 H       1  LIG1        0.0618
      9 H          -1.9035    1.3287    0.0016 H       1  LIG1        0.0618
     10 H          -0.5708   -1.1108    0.0005 H       1  LIG1        0.0618
     11 H           2.1896    3.5590   -0.0012 H       1  LIG1        0.0624
     12 C           3.4844    1.1831   -0.0005 C.ar    1  LIG1        0.0469
     13 C           4.3953    2.1921   -0.0001 C.ar    1  LIG1       -0.0358
     14 C           5.6963    1.5937   -0.0016 C.ar    1  LIG1       -0.0358
     15 C           5.5232    0.2454   -0.0011 C.ar    1  LIG1        0.0469
     16 N           4.1705   -0.0104   -0.0009 N.ar    1  LIG1       -0.3542
     17 H           3.7551   -0.9134   -0.0004 H       1  LIG1        0.1659
     18 H           4.1304    3.4648    0.0000 H       1  LIG1        0.0639
     19 H           6.8351    2.2208   -0.0027 H       1  LIG1        0.0639
     20 C           7.7741   -0.4159   -0.0030 C.ar    1  LIG1       -0.0526
     21 C           8.6802   -1.4940   -0.0053 C.ar    1  LIG1       -0.0611
     22 C           6.3968   -0.7172   -0.0018 C.ar    1  LIG1       -0.0017
     23 C           8.2367   -2.8146   -0.0058 C.ar    1  LIG1       -0.0617
     24 H           9.7474   -1.2840   -0.0064 H       1  LIG1        0.0618
     25 C           5.9536   -2.0354   -0.0023 C.ar    1  LIG1       -0.0526
     26 C           6.8693   -3.0928   -0.0042 C.ar    1  LIG1       -0.0611
     27 H           4.8863   -2.2420   -0.0015 H       1  LIG1        0.0624
     28 H           9.1010   -3.7857   -0.0079 H       1  LIG1        0.0618
     29 H           8.2481    0.7946   -0.0023 H       1  LIG1        0.0624
     30 H           6.4491   -4.3230   -0.0049 H       1  LIG1        0.0618
@<TRIPOS>BOND
     1    28    23    1
     2    24    21    1
     3    23    21   ar
     4    23    26   ar
     5    21    20   ar
     6    30    26    1
     7    26    25   ar
     8    20    29    1
     9    20    22   ar
    10    19    14    1
    11    25    22   ar
    12    25    27    1
    13    22    15    1
    14    14    15   ar
    15    14    13   ar
    16    11     7    1
    17    15    16   ar
    18    16    12   ar
    19    16    17    1
    20     7     6   ar
    21     7     4   ar
    22    12     4    1
    23    12    13   ar
    24     6     8    1
    25     6     3   ar
    26     4     2   ar
    27    13    18    1
    28     1     3   ar
    29     1     2   ar
    30     1    10    1
    31     3     9    1
    32     2     5    1
