@<TRIPOS>MOLECULE
mol_data/noopt/geoms/mol2/413-13.out
 28 30 0 0 0
SMALL
GASTEIGER

@<TRIPOS>ATOM
      1 C           0.0509    0.0309    0.0002 C.ar    1  LIG1       -0.0611
      2 C           1.4592    0.0309    0.0002 C.ar    1  LIG1       -0.0526
      3 C          -0.6045    1.2792    0.0002 C.ar    1  LIG1       -0.0617
      4 C           2.1849    1.2200   -0.0004 C.ar    1  LIG1       -0.0017
      5 H           1.9850   -0.9213    0.0004 H       1  LIG1        0.0624
      6 C           0.1195    2.4666   -0.0004 C.ar    1  LIG1       -0.0611
      7 C           1.5181    2.4458   -0.0008 C.ar    1  LIG1       -0.0526
      8 H          -0.4090    3.4165   -0.0003 H       1  LIG1        0.0618
      9 H          -1.9035    1.3287    0.0016 H       1  LIG1        0.0618
     10 H          -0.5708   -1.1108    0.0005 H       1  LIG1        0.0618
     11 H           2.1896    3.5590   -0.0012 H       1  LIG1        0.0624
     12 C           3.4844    1.1831   -0.0005 C.ar    1  LIG1        0.0469
     13 C           4.3953    2.1921   -0.0001 C.ar    1  LIG1       -0.0358
     14 C           5.6963    1.5937   -0.0016 C.ar    1  LIG1       -0.0344
     15 C           5.5232    0.2454   -0.0011 C.ar    1  LIG1        0.0633
     16 N           4.1705   -0.0104   -0.0009 N.ar    1  LIG1       -0.3530
     17 H           3.7551   -0.9134   -0.0004 H       1  LIG1        0.1659
     18 H           4.1304    3.4648    0.0000 H       1  LIG1        0.0639
     19 H           6.8351    2.2208   -0.0027 H       1  LIG1        0.0639
     20 C           6.3968   -0.7173   -0.0018 C.ar    1  LIG1        0.0629
     21 C           6.2235   -2.0656   -0.0027 C.ar    1  LIG1       -0.0350
     22 C           7.5245   -2.6640   -0.0021 C.ar    1  LIG1       -0.0438
     23 C           8.4356   -1.6551   -0.0027 C.ar    1  LIG1        0.0022
     24 N           7.7495   -0.4616   -0.0020 N.ar    1  LIG1       -0.3595
     25 H           8.1649    0.4415   -0.0024 H       1  LIG1        0.1654
     26 H           9.7351   -1.6920   -0.0027 H       1  LIG1        0.0807
     27 H           5.0847   -2.6926   -0.0024 H       1  LIG1        0.0639
     28 H           7.7894   -3.9367   -0.0016 H       1  LIG1        0.0633
@<TRIPOS>BOND
     1    23    26    1
     2    23    22   ar
     3    23    24   ar
     4    21    27    1
     5    21    22   ar
     6    21    20   ar
     7    19    14    1
     8    25    24    1
     9    22    28    1
    10    24    20   ar
    11    20    15    1
    12    14    15   ar
    13    14    13   ar
    14    11     7    1
    15    15    16   ar
    16    16    12   ar
    17    16    17    1
    18     7     6   ar
    19     7     4   ar
    20    12     4    1
    21    12    13   ar
    22     6     8    1
    23     6     3   ar
    24     4     2   ar
    25    13    18    1
    26     1     3   ar
    27     1     2   ar
    28     1    10    1
    29     3     9    1
    30     2     5    1
