@<TRIPOS>MOLECULE
mol_data/noopt/geoms/mol2/413-12.out
 27 29 0 0 0
SMALL
GASTEIGER

@<TRIPOS>ATOM
      1 C           0.0509    0.0309    0.0002 C.ar    1  LIG1       -0.0611
      2 C           1.4592    0.0309    0.0002 C.ar    1  LIG1       -0.0526
      3 C          -0.6045    1.2792    0.0002 C.ar    1  LIG1       -0.0617
      4 C           2.1849    1.2200   -0.0004 C.ar    1  LIG1       -0.0017
      5 H           1.9850   -0.9213    0.0004 H       1  LIG1        0.0624
      6 C           0.1195    2.4666   -0.0004 C.ar    1  LIG1       -0.0611
      7 C           1.5181    2.4458   -0.0008 C.ar    1  LIG1       -0.0526
      8 H          -0.4090    3.4165   -0.0003 H       1  LIG1        0.0618
      9 H          -1.9035    1.3287    0.0016 H       1  LIG1        0.0618
     10 H          -0.5708   -1.1108    0.0005 H       1  LIG1        0.0618
     11 H           2.1896    3.5590   -0.0012 H       1  LIG1        0.0624
     12 C           3.4844    1.1831   -0.0005 C.ar    1  LIG1        0.0470
     13 C           4.3953    2.1921   -0.0001 C.ar    1  LIG1       -0.0357
     14 C           5.6963    1.5937   -0.0016 C.ar    1  LIG1       -0.0328
     15 C           5.5232    0.2454   -0.0011 C.ar    1  LIG1        0.0825
     16 N           4.1705   -0.0104   -0.0009 N.ar    1  LIG1       -0.3518
     17 H           3.7551   -0.9134   -0.0004 H       1  LIG1        0.1660
     18 H           4.1304    3.4648    0.0000 H       1  LIG1        0.0639
     19 H           6.8351    2.2208   -0.0027 H       1  LIG1        0.0640
     20 C           6.3968   -0.7173   -0.0018 C.ar    1  LIG1        0.1509
     21 C           6.3413   -2.0957   -0.0024 C.ar    1  LIG1       -0.0144
     22 C           7.7109   -2.5660   -0.0031 C.ar    1  LIG1       -0.0233
     23 C           8.5128   -1.4433   -0.0030 C.ar    1  LIG1        0.0926
     24 O           7.7258   -0.2911   -0.0023 O.2     1  LIG1       -0.4615
     25 H           9.7935   -1.2197   -0.0034 H       1  LIG1        0.1029
     26 H           5.2820   -2.8493   -0.0022 H       1  LIG1        0.0656
     27 H           8.0843   -3.8112   -0.0038 H       1  LIG1        0.0649
@<TRIPOS>BOND
     1    27    22    1
     2    25    23    1
     3    22    23   ar
     4    22    21   ar
     5    23    24   ar
     6    19    14    1
     7    21    26    1
     8    21    20   ar
     9    24    20   ar
    10    20    15    1
    11    14    15   ar
    12    14    13   ar
    13    11     7    1
    14    15    16   ar
    15    16    12   ar
    16    16    17    1
    17     7     4   ar
    18     7     6   ar
    19    12     4    1
    20    12    13   ar
    21     4     2   ar
    22     6     8    1
    23     6     3   ar
    24    13    18    1
    25     2     1   ar
    26     2     5    1
    27     3     1   ar
    28     3     9    1
    29     1    10    1
