@<TRIPOS>MOLECULE
mol_data/noopt/geoms/mol2/413-.out
 20 21 0 0 0
SMALL
GASTEIGER

@<TRIPOS>ATOM
      1 C           0.0509    0.0309    0.0002 C.ar    1  LIG1       -0.0611
      2 C           1.4592    0.0309    0.0002 C.ar    1  LIG1       -0.0526
      3 C          -0.6045    1.2792    0.0002 C.ar    1  LIG1       -0.0617
      4 C           2.1849    1.2200   -0.0004 C.ar    1  LIG1       -0.0017
      5 H           1.9850   -0.9213    0.0004 H       1  LIG1        0.0624
      6 C           0.1195    2.4666   -0.0004 C.ar    1  LIG1       -0.0611
      7 C           1.5181    2.4458   -0.0008 C.ar    1  LIG1       -0.0526
      8 H          -0.4090    3.4165   -0.0003 H       1  LIG1        0.0618
      9 H          -1.9035    1.3287    0.0016 H       1  LIG1        0.0618
     10 H          -0.5708   -1.1108    0.0005 H       1  LIG1        0.0618
     11 H           2.1896    3.5590   -0.0012 H       1  LIG1        0.0624
     12 C           3.4844    1.1831   -0.0005 C.ar    1  LIG1        0.0465
     13 C           4.3953    2.1921   -0.0001 C.ar    1  LIG1       -0.0364
     14 C           5.6963    1.5937   -0.0016 C.ar    1  LIG1       -0.0438
     15 C           5.5232    0.2454   -0.0011 C.ar    1  LIG1        0.0022
     16 N           4.1705   -0.0104   -0.0009 N.ar    1  LIG1       -0.3607
     17 H           3.7551   -0.9134   -0.0004 H       1  LIG1        0.1653
     18 H           6.3968   -0.7173   -0.0018 H       1  LIG1        0.0807
     19 H           4.1304    3.4648    0.0000 H       1  LIG1        0.0639
     20 H           6.8351    2.2208   -0.0027 H       1  LIG1        0.0633
@<TRIPOS>BOND
     1    20    14    1
     2    18    15    1
     3    14    15   ar
     4    14    13   ar
     5    11     7    1
     6    15    16   ar
     7    16    12   ar
     8    16    17    1
     9     7     6   ar
    10     7     4   ar
    11    12     4    1
    12    12    13   ar
    13     6     8    1
    14     6     3   ar
    15     4     2   ar
    16    13    19    1
    17     1     3   ar
    18     1     2   ar
    19     1    10    1
    20     3     9    1
    21     2     5    1
