@<TRIPOS>MOLECULE
mol_data/noopt/geoms/mol2/413-55.out
 34 37 0 0 0
SMALL
GASTEIGER

@<TRIPOS>ATOM
      1 C           0.0509    0.0309    0.0002 C.ar    1  LIG1       -0.0611
      2 C           1.4592    0.0309    0.0002 C.ar    1  LIG1       -0.0526
      3 C          -0.6045    1.2792    0.0002 C.ar    1  LIG1       -0.0617
      4 C           2.1849    1.2200   -0.0004 C.ar    1  LIG1       -0.0017
      5 H           1.9850   -0.9213    0.0004 H       1  LIG1        0.0624
      6 C           0.1195    2.4666   -0.0004 C.ar    1  LIG1       -0.0611
      7 C           1.5181    2.4458   -0.0008 C.ar    1  LIG1       -0.0526
      8 H          -0.4090    3.4165   -0.0003 H       1  LIG1        0.0618
      9 H          -1.9035    1.3287    0.0016 H       1  LIG1        0.0618
     10 H          -0.5708   -1.1108    0.0005 H       1  LIG1        0.0618
     11 H           2.1896    3.5590   -0.0012 H       1  LIG1        0.0624
     12 C           3.4844    1.1831   -0.0005 C.ar    1  LIG1        0.0469
     13 C           4.3953    2.1921   -0.0001 C.ar    1  LIG1       -0.0358
     14 C           5.6963    1.5937   -0.0016 C.ar    1  LIG1       -0.0353
     15 C           5.5232    0.2454   -0.0011 C.ar    1  LIG1        0.0536
     16 N           4.1705   -0.0104   -0.0009 N.ar    1  LIG1       -0.3537
     17 H           3.7551   -0.9134   -0.0004 H       1  LIG1        0.1659
     18 H           4.1304    3.4648    0.0000 H       1  LIG1        0.0639
     19 H           6.8351    2.2208   -0.0027 H       1  LIG1        0.0639
     20 C           6.3968   -0.7173   -0.0018 C.ar    1  LIG1        0.0361
     21 C           6.1082   -2.0639   -0.0026 C.ar    1  LIG1       -0.0449
     22 C           7.3008   -2.8568   -0.0041 C.ar    1  LIG1       -0.0458
     23 C           8.4309   -2.0697   -0.0035 C.ar    1  LIG1        0.0265
     24 S           8.0463   -0.4423   -0.0019 S.2     1  LIG1       -0.0863
     25 H           4.9139   -2.5773   -0.0024 H       1  LIG1        0.0630
     26 H           7.2896   -4.1568   -0.0058 H       1  LIG1        0.0629
     27 C           9.6567   -2.5027   -0.0038 C.ar    1  LIG1        0.0259
     28 C          10.0414   -3.8250   -0.0044 C.ar    1  LIG1       -0.0464
     29 C          11.4675   -3.9573   -0.0055 C.ar    1  LIG1       -0.0541
     30 C          12.0888   -2.7283   -0.0048 C.ar    1  LIG1       -0.0237
     31 S          10.9783   -1.4782   -0.0037 S.2     1  LIG1       -0.0961
     32 H          13.3733   -2.5279   -0.0049 H       1  LIG1        0.0693
     33 H           9.2336   -4.8436   -0.0043 H       1  LIG1        0.0629
     34 H          12.0742   -5.1070   -0.0069 H       1  LIG1        0.0623
@<TRIPOS>BOND
     1    34    29    1
     2    26    22    1
     3    29    30   ar
     4    29    28   ar
     5    32    30    1
     6    30    31   ar
     7    28    33    1
     8    28    27   ar
     9    22    23   ar
    10    22    21   ar
    11    27    31   ar
    12    27    23    1
    13    23    24   ar
    14    19    14    1
    15    21    25    1
    16    21    20   ar
    17    24    20   ar
    18    20    15    1
    19    14    15   ar
    20    14    13   ar
    21    11     7    1
    22    15    16   ar
    23    16    12   ar
    24    16    17    1
    25     7     6   ar
    26     7     4   ar
    27    12     4    1
    28    12    13   ar
    29     6     8    1
    30     6     3   ar
    31     4     2   ar
    32    13    18    1
    33     1     3   ar
    34     1     2   ar
    35     1    10    1
    36     3     9    1
    37     2     5    1
