@<TRIPOS>MOLECULE
mol_data/noopt/geoms/mol2/413-13-8.out
 34 37 0 0 0
SMALL
GASTEIGER

@<TRIPOS>ATOM
      1 C           0.0509    0.0309    0.0002 C.ar    1  LIG1       -0.0611
      2 C           1.4592    0.0309    0.0002 C.ar    1  LIG1       -0.0526
      3 C          -0.6045    1.2792    0.0002 C.ar    1  LIG1       -0.0617
      4 C           2.1849    1.2200   -0.0004 C.ar    1  LIG1       -0.0017
      5 H           1.9850   -0.9213    0.0004 H       1  LIG1        0.0624
      6 C           0.1195    2.4666   -0.0004 C.ar    1  LIG1       -0.0611
      7 C           1.5181    2.4458   -0.0008 C.ar    1  LIG1       -0.0526
      8 H          -0.4090    3.4165   -0.0003 H       1  LIG1        0.0618
      9 H          -1.9035    1.3287    0.0016 H       1  LIG1        0.0618
     10 H          -0.5708   -1.1108    0.0005 H       1  LIG1        0.0618
     11 H           2.1896    3.5590   -0.0012 H       1  LIG1        0.0624
     12 C           3.4844    1.1831   -0.0005 C.ar    1  LIG1        0.0469
     13 C           4.3953    2.1921   -0.0001 C.ar    1  LIG1       -0.0358
     14 C           5.6963    1.5937   -0.0016 C.ar    1  LIG1       -0.0344
     15 C           5.5232    0.2454   -0.0011 C.ar    1  LIG1        0.0633
     16 N           4.1705   -0.0104   -0.0009 N.ar    1  LIG1       -0.3530
     17 H           3.7551   -0.9134   -0.0004 H       1  LIG1        0.1659
     18 H           4.1304    3.4648    0.0000 H       1  LIG1        0.0639
     19 H           6.8351    2.2208   -0.0027 H       1  LIG1        0.0639
     20 C           6.3968   -0.7173   -0.0018 C.ar    1  LIG1        0.0634
     21 C           7.7556   -0.6752   -0.0018 C.ar    1  LIG1       -0.0343
     22 C           8.2254   -2.0279   -0.0040 C.ar    1  LIG1       -0.0326
     23 C           7.1331   -2.8372   -0.0034 C.ar    1  LIG1        0.0880
     24 N           6.0115   -2.0389   -0.0026 N.ar    1  LIG1       -0.3505
     25 H           5.0725   -2.3650   -0.0019 H       1  LIG1        0.1660
     26 H           8.4898    0.3976   -0.0016 H       1  LIG1        0.0639
     27 H           9.4665   -2.4147   -0.0056 H       1  LIG1        0.0640
     28 C           7.0441   -4.1341   -0.0046 C.ar    1  LIG1        0.2193
     29 N           5.7880   -4.6583   -0.0052 N.ar    1  LIG1       -0.1243
     30 C           6.8598   -6.8235   -0.0071 C.ar    1  LIG1        0.1605
     31 N           8.2171   -4.8249   -0.0052 N.ar    1  LIG1       -0.1243
     32 N           5.7132   -6.0057   -0.0064 N.ar    1  LIG1       -0.1338
     33 N           8.1072   -6.1699   -0.0065 N.ar    1  LIG1       -0.1338
     34 H           6.7709   -8.1205   -0.0082 H       1  LIG1        0.1085
@<TRIPOS>BOND
     1    34    30    1
     2    30    33   ar
     3    30    32   ar
     4    33    31   ar
     5    32    29   ar
     6    27    22    1
     7    29    28   ar
     8    31    28   ar
     9    28    23    1
    10    22    23   ar
    11    22    21   ar
    12    23    24   ar
    13    19    14    1
    14    24    25    1
    15    24    20   ar
    16    21    20   ar
    17    21    26    1
    18    20    15    1
    19    14    15   ar
    20    14    13   ar
    21    11     7    1
    22    15    16   ar
    23    16    12   ar
    24    16    17    1
    25     7     6   ar
    26     7     4   ar
    27    12     4    1
    28    12    13   ar
    29     6     8    1
    30     6     3   ar
    31     4     2   ar
    32    13    18    1
    33     1     3   ar
    34     1     2   ar
    35     1    10    1
    36     3     9    1
    37     2     5    1
