@<TRIPOS>MOLECULE
mol_data/noopt/geoms/mol2/413.out
 20 21 0 0 0
SMALL
GASTEIGER

@<TRIPOS>ATOM
      1 C           0.0509    0.0309    0.0002 C.ar    1  LIG1       -0.0611
      2 C           1.4592    0.0309    0.0002 C.ar    1  LIG1       -0.0526
      3 C          -0.6045    1.2792    0.0002 C.ar    1  LIG1       -0.0617
      4 C           2.1849    1.2200   -0.0004 C.ar    1  LIG1       -0.0017
      5 H           1.9850   -0.9213    0.0004 H       1  LIG1        0.0624
      6 C           0.1195    2.4666   -0.0004 C.ar    1  LIG1       -0.0611
      7 C           1.5181    2.4458   -0.0008 C.ar    1  LIG1       -0.0526
      8 H          -0.4090    3.4165   -0.0003 H       1  LIG1        0.0618
      9 H          -1.9035    1.3287    0.0016 H       1  LIG1        0.0618
     10 H          -0.5708   -1.1108    0.0005 H       1  LIG1        0.0618
     11 H           2.1896    3.5590   -0.0012 H       1  LIG1        0.0624
     12 C           3.4844    1.1831   -0.0005 C.ar    1  LIG1        0.0465
     13 C           4.3366    0.1240   -0.0009 C.ar    1  LIG1       -0.0364
     14 C           5.6695    0.6476    0.0003 C.ar    1  LIG1       -0.0438
     15 C           5.5731    2.0036   -0.0004 C.ar    1  LIG1        0.0022
     16 N           4.2371    2.3357   -0.0004 N.ar    1  LIG1       -0.3607
     17 H           3.8737    3.2609   -0.0009 H       1  LIG1        0.1653
     18 H           6.5000    2.9152    0.0001 H       1  LIG1        0.0807
     19 H           3.9999   -1.1316   -0.0008 H       1  LIG1        0.0639
     20 H           6.7708   -0.0431    0.0013 H       1  LIG1        0.0633
@<TRIPOS>BOND
     1    11     7    1
     2    13    19    1
     3    13    12   ar
     4    13    14   ar
     5    17    16    1
     6     7     4   ar
     7     7     6   ar
     8    12     4    1
     9    12    16   ar
    10     4     2   ar
    11     6     8    1
    12     6     3   ar
    13    16    15   ar
    14    15    18    1
    15    15    14   ar
    16     1     3   ar
    17     1     2   ar
    18     1    10    1
    19     3     9    1
    20     2     5    1
    21    14    20    1
