@<TRIPOS>MOLECULE
mol_data/noopt/geoms/mol2/41313-5-.out
 35 38 0 0 0
SMALL
GASTEIGER

@<TRIPOS>ATOM
      1 C           0.0509    0.0309    0.0002 C.ar    1  LIG1       -0.0611
      2 C           1.4592    0.0309    0.0002 C.ar    1  LIG1       -0.0526
      3 C          -0.6045    1.2792    0.0002 C.ar    1  LIG1       -0.0617
      4 C           2.1849    1.2200   -0.0004 C.ar    1  LIG1       -0.0017
      5 H           1.9850   -0.9213    0.0004 H       1  LIG1        0.0624
      6 C           0.1195    2.4666   -0.0004 C.ar    1  LIG1       -0.0611
      7 C           1.5181    2.4458   -0.0008 C.ar    1  LIG1       -0.0526
      8 H          -0.4090    3.4165   -0.0003 H       1  LIG1        0.0618
      9 H          -1.9035    1.3287    0.0016 H       1  LIG1        0.0618
     10 H          -0.5708   -1.1108    0.0005 H       1  LIG1        0.0618
     11 H           2.1896    3.5590   -0.0012 H       1  LIG1        0.0624
     12 C           3.4844    1.1831   -0.0005 C.ar    1  LIG1        0.0469
     13 C           4.3366    0.1240   -0.0009 C.ar    1  LIG1       -0.0358
     14 C           5.6695    0.6476    0.0003 C.ar    1  LIG1       -0.0344
     15 C           5.5731    2.0036   -0.0004 C.ar    1  LIG1        0.0633
     16 N           4.2371    2.3357   -0.0004 N.ar    1  LIG1       -0.3530
     17 H           3.8737    3.2609   -0.0009 H       1  LIG1        0.1659
     18 H           3.9999   -1.1316   -0.0008 H       1  LIG1        0.0639
     19 H           6.7708   -0.0431    0.0013 H       1  LIG1        0.0639
     20 C           6.5000    2.9152    0.0001 C.ar    1  LIG1        0.0633
     21 C           6.4035    4.2711    0.0009 C.ar    1  LIG1       -0.0344
     22 C           7.7363    4.7948    0.0000 C.ar    1  LIG1       -0.0353
     23 C           8.5887    3.7358    0.0005 C.ar    1  LIG1        0.0536
     24 N           7.8360    2.5831    0.0000 N.ar    1  LIG1       -0.3526
     25 H           8.1994    1.6579    0.0003 H       1  LIG1        0.1660
     26 H           5.3021    4.9618    0.0009 H       1  LIG1        0.0639
     27 H           8.0730    6.0504   -0.0006 H       1  LIG1        0.0639
     28 C           9.8882    3.6989    0.0001 C.ar    1  LIG1        0.0355
     29 C          10.7228    4.7943    0.0000 C.ar    1  LIG1       -0.0455
     30 C          12.1010    4.4048    0.0004 C.ar    1  LIG1       -0.0541
     31 C          12.2387    3.0345   -0.0001 C.ar    1  LIG1       -0.0237
     32 S          10.7528    2.2675   -0.0002 S.2     1  LIG1       -0.0952
     33 H          13.3651    2.3856   -0.0005 H       1  LIG1        0.0693
     34 H          10.3354    6.0353   -0.0001 H       1  LIG1        0.0629
     35 H          13.0807    5.2593    0.0011 H       1  LIG1        0.0623
@<TRIPOS>BOND
     1    11     7    1
     2    13    18    1
     3    13    12   ar
     4    13    14   ar
     5    17    16    1
     6     7     4   ar
     7     7     6   ar
     8    27    22    1
     9    33    31    1
    10    12     4    1
    11    12    16   ar
    12     4     2   ar
    13     6     8    1
    14     6     3   ar
    15    16    15   ar
    16    15    20    1
    17    15    14   ar
    18    32    31   ar
    19    32    28   ar
    20    34    29    1
    21    31    30   ar
    22    29    28   ar
    23    29    30   ar
    24    22    23   ar
    25    22    21   ar
    26    24    20   ar
    27    24    25    1
    28    24    23   ar
    29    20    21   ar
    30    28    23    1
    31     1     3   ar
    32     1     2   ar
    33     1    10    1
    34     3     9    1
    35     2     5    1
    36    14    19    1
    37    30    35    1
    38    26    21    1
