@<TRIPOS>MOLECULE
mol_data/noopt/geoms/mol2/41313.out
 28 30 0 0 0
SMALL
GASTEIGER

@<TRIPOS>ATOM
      1 C           0.0509    0.0309    0.0002 C.ar    1  LIG1       -0.0611
      2 C           1.4592    0.0309    0.0002 C.ar    1  LIG1       -0.0526
      3 C          -0.6045    1.2792    0.0002 C.ar    1  LIG1       -0.0617
      4 C           2.1849    1.2200   -0.0004 C.ar    1  LIG1       -0.0017
      5 H           1.9850   -0.9213    0.0004 H       1  LIG1        0.0624
      6 C           0.1195    2.4666   -0.0004 C.ar    1  LIG1       -0.0611
      7 C           1.5181    2.4458   -0.0008 C.ar    1  LIG1       -0.0526
      8 H          -0.4090    3.4165   -0.0003 H       1  LIG1        0.0618
      9 H          -1.9035    1.3287    0.0016 H       1  LIG1        0.0618
     10 H          -0.5708   -1.1108    0.0005 H       1  LIG1        0.0618
     11 H           2.1896    3.5590   -0.0012 H       1  LIG1        0.0624
     12 C           3.4844    1.1831   -0.0005 C.ar    1  LIG1        0.0469
     13 C           4.3366    0.1240   -0.0009 C.ar    1  LIG1       -0.0358
     14 C           5.6695    0.6476    0.0003 C.ar    1  LIG1       -0.0344
     15 C           5.5731    2.0036   -0.0004 C.ar    1  LIG1        0.0633
     16 N           4.2371    2.3357   -0.0004 N.ar    1  LIG1       -0.3530
     17 H           3.8737    3.2609   -0.0009 H       1  LIG1        0.1659
     18 H           3.9999   -1.1316   -0.0008 H       1  LIG1        0.0639
     19 H           6.7708   -0.0431    0.0013 H       1  LIG1        0.0639
     20 C           6.5000    2.9152    0.0001 C.ar    1  LIG1        0.0629
     21 C           7.8542    2.7960    0.0001 C.ar    1  LIG1       -0.0350
     22 C           8.4000    4.1199    0.0019 C.ar    1  LIG1       -0.0438
     23 C           7.3553    4.9899    0.0012 C.ar    1  LIG1        0.0022
     24 N           6.1903    4.2565    0.0006 N.ar    1  LIG1       -0.3595
     25 H           5.2713    4.6354   -0.0001 H       1  LIG1        0.1654
     26 H           7.3401    6.2898    0.0020 H       1  LIG1        0.0807
     27 H           8.5263    1.6833    0.0000 H       1  LIG1        0.0639
     28 H           9.6610    4.4356    0.0034 H       1  LIG1        0.0633
@<TRIPOS>BOND
     1    11     7    1
     2    13    18    1
     3    13    12   ar
     4    13    14   ar
     5    17    16    1
     6     7     4   ar
     7     7     6   ar
     8    12     4    1
     9    12    16   ar
    10     4     2   ar
    11     6     8    1
    12     6     3   ar
    13    16    15   ar
    14    15    20    1
    15    15    14   ar
    16    25    24    1
    17    27    21    1
    18    21    20   ar
    19    21    22   ar
    20    20    24   ar
    21     1     3   ar
    22     1     2   ar
    23     1    10    1
    24     3     9    1
    25     2     5    1
    26    14    19    1
    27    24    23   ar
    28    23    22   ar
    29    23    26    1
    30    22    28    1
