@<TRIPOS>MOLECULE
mol_data/noopt/geoms/mol2/41312-5-.out
 34 37 0 0 0
SMALL
GASTEIGER

@<TRIPOS>ATOM
      1 C           0.0509    0.0309    0.0002 C.ar    1  LIG1       -0.0611
      2 C           1.4592    0.0309    0.0002 C.ar    1  LIG1       -0.0526
      3 C          -0.6045    1.2792    0.0002 C.ar    1  LIG1       -0.0617
      4 C           2.1849    1.2200   -0.0004 C.ar    1  LIG1       -0.0017
      5 H           1.9850   -0.9213    0.0004 H       1  LIG1        0.0624
      6 C           0.1195    2.4666   -0.0004 C.ar    1  LIG1       -0.0611
      7 C           1.5181    2.4458   -0.0008 C.ar    1  LIG1       -0.0526
      8 H          -0.4090    3.4165   -0.0003 H       1  LIG1        0.0618
      9 H          -1.9035    1.3287    0.0016 H       1  LIG1        0.0618
     10 H          -0.5708   -1.1108    0.0005 H       1  LIG1        0.0618
     11 H           2.1896    3.5590   -0.0012 H       1  LIG1        0.0624
     12 C           3.4844    1.1831   -0.0005 C.ar    1  LIG1        0.0470
     13 C           4.3366    0.1240   -0.0009 C.ar    1  LIG1       -0.0357
     14 C           5.6695    0.6476    0.0003 C.ar    1  LIG1       -0.0328
     15 C           5.5731    2.0036   -0.0004 C.ar    1  LIG1        0.0825
     16 N           4.2371    2.3357   -0.0004 N.ar    1  LIG1       -0.3518
     17 H           3.8737    3.2609   -0.0009 H       1  LIG1        0.1660
     18 H           3.9999   -1.1316   -0.0008 H       1  LIG1        0.0639
     19 H           6.7708   -0.0431    0.0013 H       1  LIG1        0.0640
     20 C           6.5000    2.9151    0.0001 C.ar    1  LIG1        0.1518
     21 C           6.5227    4.2945    0.0005 C.ar    1  LIG1       -0.0138
     22 C           7.9168    4.6863    0.0009 C.ar    1  LIG1       -0.0147
     23 C           8.6538    3.5199    0.0009 C.ar    1  LIG1        0.1423
     24 O           7.8026    2.4143    0.0005 O.2     1  LIG1       -0.4528
     25 H           5.5080    5.1070    0.0004 H       1  LIG1        0.0656
     26 H           8.3603    5.9083    0.0014 H       1  LIG1        0.0656
     27 C           9.9196    3.2241    0.0011 C.ar    1  LIG1        0.0544
     28 C          10.9564    4.1306    0.0014 C.ar    1  LIG1       -0.0440
     29 C          12.2289    3.4736    0.0024 C.ar    1  LIG1       -0.0540
     30 C          12.0900    2.1034    0.0020 C.ar    1  LIG1       -0.0236
     31 S          10.4808    1.6488    0.0012 S.2     1  LIG1       -0.0936
     32 H          13.0641    1.2424    0.0021 H       1  LIG1        0.0693
     33 H          10.8248    5.4239    0.0011 H       1  LIG1        0.0630
     34 H          13.3596    4.1151    0.0035 H       1  LIG1        0.0623
@<TRIPOS>BOND
     1    11     7    1
     2    13    18    1
     3    13    12   ar
     4    13    14   ar
     5    17    16    1
     6     7     4   ar
     7     7     6   ar
     8    12     4    1
     9    12    16   ar
    10     4     2   ar
    11     6     8    1
    12     6     3   ar
    13    16    15   ar
    14    15    20    1
    15    15    14   ar
    16    20    21   ar
    17    20    24   ar
    18     1     3   ar
    19     1     2   ar
    20     1    10    1
    21     3     9    1
    22     2     5    1
    23    14    19    1
    24    25    21    1
    25    21    22   ar
    26    24    23   ar
    27    23    22   ar
    28    23    27    1
    29    22    26    1
    30    33    28    1
    31    27    31   ar
    32    27    28   ar
    33    31    30   ar
    34    28    29   ar
    35    30    32    1
    36    30    29   ar
    37    29    34    1
