@<TRIPOS>MOLECULE
mol_data/noopt/geoms/mol2/41312.out
 27 29 0 0 0
SMALL
GASTEIGER

@<TRIPOS>ATOM
      1 C           0.0509    0.0309    0.0002 C.ar    1  LIG1       -0.0611
      2 C           1.4592    0.0309    0.0002 C.ar    1  LIG1       -0.0526
      3 C          -0.6045    1.2792    0.0002 C.ar    1  LIG1       -0.0617
      4 C           2.1849    1.2200   -0.0004 C.ar    1  LIG1       -0.0017
      5 H           1.9850   -0.9213    0.0004 H       1  LIG1        0.0624
      6 C           0.1195    2.4666   -0.0004 C.ar    1  LIG1       -0.0611
      7 C           1.5181    2.4458   -0.0008 C.ar    1  LIG1       -0.0526
      8 H          -0.4090    3.4165   -0.0003 H       1  LIG1        0.0618
      9 H          -1.9035    1.3287    0.0016 H       1  LIG1        0.0618
     10 H          -0.5708   -1.1108    0.0005 H       1  LIG1        0.0618
     11 H           2.1896    3.5590   -0.0012 H       1  LIG1        0.0624
     12 C           3.4844    1.1831   -0.0005 C.ar    1  LIG1        0.0470
     13 C           4.3366    0.1240   -0.0009 C.ar    1  LIG1       -0.0357
     14 C           5.6695    0.6476    0.0003 C.ar    1  LIG1       -0.0328
     15 C           5.5731    2.0036   -0.0004 C.ar    1  LIG1        0.0825
     16 N           4.2371    2.3357   -0.0004 N.ar    1  LIG1       -0.3518
     17 H           3.8737    3.2609   -0.0009 H       1  LIG1        0.1660
     18 H           3.9999   -1.1316   -0.0008 H       1  LIG1        0.0639
     19 H           6.7708   -0.0431    0.0013 H       1  LIG1        0.0640
     20 C           6.5000    2.9151    0.0001 C.ar    1  LIG1        0.1509
     21 C           7.8795    2.9149    0.0005 C.ar    1  LIG1       -0.0144
     22 C           8.2945    4.3022    0.0009 C.ar    1  LIG1       -0.0233
     23 C           7.1406    5.0585    0.0007 C.ar    1  LIG1        0.0926
     24 O           6.0209    4.2259    0.0001 O.2     1  LIG1       -0.4615
     25 H           6.8659    6.3292    0.0010 H       1  LIG1        0.1029
     26 H           8.6750    1.8867    0.0005 H       1  LIG1        0.0656
     27 H           9.5238    4.7253    0.0014 H       1  LIG1        0.0649
@<TRIPOS>BOND
     1    11     7    1
     2    13    18    1
     3    13    12   ar
     4    13    14   ar
     5    17    16    1
     6     7     4   ar
     7     7     6   ar
     8    12     4    1
     9    12    16   ar
    10     4     2   ar
    11     6     8    1
    12     6     3   ar
    13    16    15   ar
    14    15    20    1
    15    15    14   ar
    16    20    24   ar
    17    20    21   ar
    18    24    23   ar
    19     1     3   ar
    20     1     2   ar
    21     1    10    1
    22     3     9    1
    23     2     5    1
    24    14    19    1
    25    21    26    1
    26    21    22   ar
    27    23    22   ar
    28    23    25    1
    29    22    27    1
