@<TRIPOS>MOLECULE
mol_data/noopt/geoms/mol2/413512-.out
 34 37 0 0 0
SMALL
GASTEIGER

@<TRIPOS>ATOM
      1 C           0.0509    0.0309    0.0002 C.ar    1  LIG1       -0.0611
      2 C           1.4592    0.0309    0.0002 C.ar    1  LIG1       -0.0526
      3 C          -0.6045    1.2792    0.0002 C.ar    1  LIG1       -0.0617
      4 C           2.1849    1.2200   -0.0004 C.ar    1  LIG1       -0.0017
      5 H           1.9850   -0.9213    0.0004 H       1  LIG1        0.0624
      6 C           0.1195    2.4666   -0.0004 C.ar    1  LIG1       -0.0611
      7 C           1.5181    2.4458   -0.0008 C.ar    1  LIG1       -0.0526
      8 H          -0.4090    3.4165   -0.0003 H       1  LIG1        0.0618
      9 H          -1.9035    1.3287    0.0016 H       1  LIG1        0.0618
     10 H          -0.5708   -1.1108    0.0005 H       1  LIG1        0.0618
     11 H           2.1896    3.5590   -0.0012 H       1  LIG1        0.0624
     12 C           3.4844    1.1831   -0.0005 C.ar    1  LIG1        0.0469
     13 C           4.3366    0.1240   -0.0009 C.ar    1  LIG1       -0.0358
     14 C           5.6695    0.6476    0.0003 C.ar    1  LIG1       -0.0353
     15 C           5.5731    2.0036   -0.0004 C.ar    1  LIG1        0.0536
     16 N           4.2371    2.3357   -0.0004 N.ar    1  LIG1       -0.3537
     17 H           3.8737    3.2609   -0.0009 H       1  LIG1        0.1659
     18 H           3.9999   -1.1316   -0.0008 H       1  LIG1        0.0639
     19 H           6.7708   -0.0431    0.0013 H       1  LIG1        0.0639
     20 C           6.5000    2.9152    0.0001 C.ar    1  LIG1        0.0362
     21 C           7.8571    2.6807    0.0000 C.ar    1  LIG1       -0.0448
     22 C           8.6016    3.9042   -0.0001 C.ar    1  LIG1       -0.0433
     23 C           7.7698    5.0018    0.0007 C.ar    1  LIG1        0.0550
     24 S           6.1592    4.5523    0.0008 S.2     1  LIG1       -0.0837
     25 H           8.4180    1.5080   -0.0001 H       1  LIG1        0.0630
     26 H           9.9010    3.9450   -0.0009 H       1  LIG1        0.0630
     27 C           8.1533    6.2439    0.0014 C.ar    1  LIG1        0.1413
     28 C           7.5190    7.4689    0.0019 C.ar    1  LIG1       -0.0154
     29 C           8.5603    8.4752    0.0026 C.ar    1  LIG1       -0.0233
     30 C           9.7624    7.7980    0.0025 C.ar    1  LIG1        0.0926
     31 O           9.5376    6.4209    0.0019 O.2     1  LIG1       -0.4624
     32 H          11.0171    8.1381    0.0028 H       1  LIG1        0.1029
     33 H           6.2402    7.7028    0.0018 H       1  LIG1        0.0655
     34 H           8.3711    9.7614    0.0032 H       1  LIG1        0.0649
@<TRIPOS>BOND
     1    11     7    1
     2    13    18    1
     3    13    12   ar
     4    13    14   ar
     5    17    16    1
     6    26    22    1
     7     7     4   ar
     8     7     6   ar
     9    12     4    1
    10    12    16   ar
    11     4     2   ar
    12     6     8    1
    13     6     3   ar
    14    16    15   ar
    15    15    20    1
    16    15    14   ar
    17    25    21    1
    18    22    21   ar
    19    22    23   ar
    20    21    20   ar
    21    20    24   ar
    22     1     2   ar
    23     1     3   ar
    24     1    10    1
    25     2     5    1
    26     3     9    1
    27    14    19    1
    28    23    24   ar
    29    23    27    1
    30    27    31   ar
    31    27    28   ar
    32    33    28    1
    33    31    30   ar
    34    28    29   ar
    35    30    29   ar
    36    30    32    1
    37    29    34    1
