@<TRIPOS>MOLECULE
mol_data/noopt/geoms/mol2/4138-8-.out
 32 35 0 0 0
SMALL
GASTEIGER

@<TRIPOS>ATOM
      1 C           0.0509    0.0309    0.0002 C.ar    1  LIG1       -0.0611
      2 C           1.4592    0.0309    0.0002 C.ar    1  LIG1       -0.0526
      3 C          -0.6045    1.2792    0.0002 C.ar    1  LIG1       -0.0617
      4 C           2.1849    1.2200   -0.0004 C.ar    1  LIG1       -0.0017
      5 H           1.9850   -0.9213    0.0004 H       1  LIG1        0.0624
      6 C           0.1195    2.4666   -0.0004 C.ar    1  LIG1       -0.0611
      7 C           1.5181    2.4458   -0.0008 C.ar    1  LIG1       -0.0526
      8 H          -0.4090    3.4165   -0.0003 H       1  LIG1        0.0618
      9 H          -1.9035    1.3287    0.0016 H       1  LIG1        0.0618
     10 H          -0.5708   -1.1108    0.0005 H       1  LIG1        0.0618
     11 H           2.1896    3.5590   -0.0012 H       1  LIG1        0.0624
     12 C           3.4844    1.1831   -0.0005 C.ar    1  LIG1        0.0470
     13 C           4.3366    0.1240   -0.0009 C.ar    1  LIG1       -0.0357
     14 C           5.6695    0.6476    0.0003 C.ar    1  LIG1       -0.0326
     15 C           5.5731    2.0036   -0.0004 C.ar    1  LIG1        0.0879
     16 N           4.2371    2.3357   -0.0004 N.ar    1  LIG1       -0.3516
     17 H           3.8737    3.2609   -0.0009 H       1  LIG1        0.1660
     18 H           3.9999   -1.1316   -0.0008 H       1  LIG1        0.0639
     19 H           6.7708   -0.0431    0.0013 H       1  LIG1        0.0640
     20 C           6.5000    2.9152    0.0001 C.ar    1  LIG1        0.2194
     21 N           6.0805    4.2100    0.0003 N.ar    1  LIG1       -0.1236
     22 C           8.4220    4.8052    0.0011 C.ar    1  LIG1        0.2435
     23 N           7.7877    2.4741    0.0003 N.ar    1  LIG1       -0.1236
     24 N           7.0549    5.1437    0.0008 N.ar    1  LIG1       -0.1218
     25 N           8.7375    3.4328    0.0009 N.ar    1  LIG1       -0.1218
     26 C           9.3489    5.7168    0.0016 C.ar    1  LIG1        0.2434
     27 N           8.9294    7.0116    0.0018 N.ar    1  LIG1       -0.1224
     28 C          11.2709    7.6069    0.0026 C.ar    1  LIG1        0.1605
     29 N          10.6366    5.2757    0.0018 N.ar    1  LIG1       -0.1224
     30 N           9.9038    7.9453    0.0023 N.ar    1  LIG1       -0.1338
     31 N          11.5864    6.2344    0.0024 N.ar    1  LIG1       -0.1338
     32 H          12.1978    8.5184    0.0030 H       1  LIG1        0.1085
@<TRIPOS>BOND
     1    11     7    1
     2    13    18    1
     3    13    12   ar
     4    13    14   ar
     5    17    16    1
     6     7     4   ar
     7     7     6   ar
     8    12     4    1
     9    12    16   ar
    10     4     2   ar
    11     6     8    1
    12     6     3   ar
    13    16    15   ar
    14    15    20    1
    15    15    14   ar
    16    20    23   ar
    17    20    21   ar
    18     1     2   ar
    19     1     3   ar
    20     1    10    1
    21     2     5    1
    22     3     9    1
    23    14    19    1
    24    23    25   ar
    25    21    24   ar
    26    24    22   ar
    27    25    22   ar
    28    22    26    1
    29    26    27   ar
    30    26    29   ar
    31    27    30   ar
    32    29    31   ar
    33    30    28   ar
    34    31    28   ar
    35    28    32    1
