@<TRIPOS>MOLECULE
mol_data/noopt/geoms/mol2/44-.out
 22 23 0 0 0
SMALL
GASTEIGER

@<TRIPOS>ATOM
      1 C           0.0509    0.0309    0.0002 C.ar    1  LIG1       -0.0612
      2 C           1.4592    0.0309    0.0002 C.ar    1  LIG1       -0.0540
      3 C          -0.6045    1.2792    0.0002 C.ar    1  LIG1       -0.0617
      4 C           2.1849    1.2200   -0.0004 C.ar    1  LIG1       -0.0179
      5 H           1.9850   -0.9213    0.0004 H       1  LIG1        0.0624
      6 C           0.1195    2.4666   -0.0004 C.ar    1  LIG1       -0.0612
      7 C           1.5181    2.4458   -0.0008 C.ar    1  LIG1       -0.0540
      8 H          -0.4090    3.4165   -0.0003 H       1  LIG1        0.0618
      9 H          -1.9035    1.3287    0.0016 H       1  LIG1        0.0618
     10 H          -0.5708   -1.1108    0.0005 H       1  LIG1        0.0618
     11 H           2.1896    3.5590   -0.0012 H       1  LIG1        0.0624
     12 C           4.2212    2.3851   -0.0013 C.ar    1  LIG1       -0.0540
     13 C           5.6264    2.2916   -0.0029 C.ar    1  LIG1       -0.0612
     14 C           3.4843    1.1831   -0.0005 C.ar    1  LIG1       -0.0179
     15 C           6.2715    1.0569   -0.0031 C.ar    1  LIG1       -0.0617
     16 H           6.2143    3.2067   -0.0038 H       1  LIG1        0.0618
     17 C           4.1278   -0.0498   -0.0007 C.ar    1  LIG1       -0.0540
     18 C           5.5247   -0.1219   -0.0019 C.ar    1  LIG1       -0.0612
     19 H           3.5374   -0.9625   -0.0001 H       1  LIG1        0.0624
     20 H           7.5706    1.0074   -0.0045 H       1  LIG1        0.0618
     21 H           3.6767    3.5656   -0.0009 H       1  LIG1        0.0624
     22 H           6.1208   -1.2772   -0.0022 H       1  LIG1        0.0618
@<TRIPOS>BOND
     1    20    15    1
     2    16    13    1
     3    15    13   ar
     4    15    18   ar
     5    13    12   ar
     6    22    18    1
     7    18    17   ar
     8    12    21    1
     9    12    14   ar
    10    11     7    1
    11     7     6   ar
    12     7     4   ar
    13    17    14   ar
    14    17    19    1
    15    14     4    1
    16     6     8    1
    17     6     3   ar
    18     4     2   ar
    19     1     3   ar
    20     1     2   ar
    21     1    10    1
    22     3     9    1
    23     2     5    1
