@<TRIPOS>MOLECULE
mol_data/noopt/geoms/mol2/44-13.out
 30 32 0 0 0
SMALL
GASTEIGER

@<TRIPOS>ATOM
      1 C           0.0509    0.0309    0.0002 C.ar    1  LIG1       -0.0612
      2 C           1.4592    0.0309    0.0002 C.ar    1  LIG1       -0.0540
      3 C          -0.6045    1.2792    0.0002 C.ar    1  LIG1       -0.0617
      4 C           2.1849    1.2200   -0.0004 C.ar    1  LIG1       -0.0179
      5 H           1.9850   -0.9213    0.0004 H       1  LIG1        0.0624
      6 C           0.1195    2.4666   -0.0004 C.ar    1  LIG1       -0.0612
      7 C           1.5181    2.4458   -0.0008 C.ar    1  LIG1       -0.0540
      8 H          -0.4090    3.4165   -0.0003 H       1  LIG1        0.0618
      9 H          -1.9035    1.3287    0.0016 H       1  LIG1        0.0618
     10 H          -0.5708   -1.1108    0.0005 H       1  LIG1        0.0618
     11 H           2.1896    3.5590   -0.0012 H       1  LIG1        0.0624
     12 C           4.2212    2.3851   -0.0013 C.ar    1  LIG1       -0.0534
     13 C           5.6264    2.2916   -0.0029 C.ar    1  LIG1       -0.0521
     14 C           3.4843    1.1831   -0.0005 C.ar    1  LIG1       -0.0178
     15 C           6.2715    1.0569   -0.0031 C.ar    1  LIG1       -0.0017
     16 H           6.2143    3.2067   -0.0038 H       1  LIG1        0.0624
     17 C           4.1278   -0.0498   -0.0007 C.ar    1  LIG1       -0.0534
     18 C           5.5247   -0.1219   -0.0019 C.ar    1  LIG1       -0.0521
     19 H           3.5374   -0.9625   -0.0001 H       1  LIG1        0.0624
     20 H           3.6767    3.5656   -0.0009 H       1  LIG1        0.0624
     21 H           6.1208   -1.2772   -0.0022 H       1  LIG1        0.0624
     22 C           7.5706    1.0074   -0.0045 C.ar    1  LIG1        0.0465
     23 C           8.4125   -0.0599   -0.0058 C.ar    1  LIG1       -0.0364
     24 C           9.7503    0.4507   -0.0059 C.ar    1  LIG1       -0.0438
     25 C           9.6671    1.8076   -0.0064 C.ar    1  LIG1        0.0022
     26 N           8.3344    2.1526   -0.0051 N.ar    1  LIG1       -0.3607
     27 H           7.9800    3.0813   -0.0052 H       1  LIG1        0.1653
     28 H          10.6028    2.7101   -0.0069 H       1  LIG1        0.0807
     29 H           8.0636   -1.3122   -0.0054 H       1  LIG1        0.0639
     30 H          10.8449   -0.2506   -0.0060 H       1  LIG1        0.0633
@<TRIPOS>BOND
     1    28    25    1
     2    25    24   ar
     3    25    26   ar
     4    30    24    1
     5    24    23   ar
     6    23    29    1
     7    23    22   ar
     8    27    26    1
     9    26    22   ar
    10    22    15    1
    11    16    13    1
    12    15    13   ar
    13    15    18   ar
    14    13    12   ar
    15    21    18    1
    16    18    17   ar
    17    12    20    1
    18    12    14   ar
    19    11     7    1
    20     7     6   ar
    21     7     4   ar
    22    17    14   ar
    23    17    19    1
    24    14     4    1
    25     6     8    1
    26     6     3   ar
    27     4     2   ar
    28     1     3   ar
    29     1     2   ar
    30     1    10    1
    31     3     9    1
    32     2     5    1
