@<TRIPOS>MOLECULE
mol_data/noopt/geoms/mol2/44-124.out
 39 42 0 0 0
SMALL
GASTEIGER

@<TRIPOS>ATOM
      1 C           0.0509    0.0309    0.0002 C.ar    1  LIG1       -0.0612
      2 C           1.4592    0.0309    0.0002 C.ar    1  LIG1       -0.0540
      3 C          -0.6045    1.2792    0.0002 C.ar    1  LIG1       -0.0617
      4 C           2.1849    1.2200   -0.0004 C.ar    1  LIG1       -0.0179
      5 H           1.9850   -0.9213    0.0004 H       1  LIG1        0.0624
      6 C           0.1195    2.4666   -0.0004 C.ar    1  LIG1       -0.0612
      7 C           1.5181    2.4458   -0.0008 C.ar    1  LIG1       -0.0540
      8 H          -0.4090    3.4165   -0.0003 H       1  LIG1        0.0618
      9 H          -1.9035    1.3287    0.0016 H       1  LIG1        0.0618
     10 H          -0.5708   -1.1108    0.0005 H       1  LIG1        0.0618
     11 H           2.1896    3.5590   -0.0012 H       1  LIG1        0.0624
     12 C           4.2212    2.3851   -0.0013 C.ar    1  LIG1       -0.0534
     13 C           5.6264    2.2916   -0.0029 C.ar    1  LIG1       -0.0505
     14 C           3.4843    1.1831   -0.0005 C.ar    1  LIG1       -0.0178
     15 C           6.2715    1.0569   -0.0031 C.ar    1  LIG1        0.0173
     16 H           6.2143    3.2067   -0.0038 H       1  LIG1        0.0625
     17 C           4.1278   -0.0498   -0.0007 C.ar    1  LIG1       -0.0534
     18 C           5.5247   -0.1219   -0.0019 C.ar    1  LIG1       -0.0505
     19 H           3.5374   -0.9625   -0.0001 H       1  LIG1        0.0624
     20 H           3.6767    3.5656   -0.0009 H       1  LIG1        0.0624
     21 H           6.1208   -1.2772   -0.0022 H       1  LIG1        0.0625
     22 C           7.5705    1.0074   -0.0045 C.ar    1  LIG1        0.1357
     23 C           8.5164    0.0032   -0.0056 C.ar    1  LIG1       -0.0153
     24 C           9.8107    0.6525   -0.0069 C.ar    1  LIG1       -0.0153
     25 C           9.5698    2.0110   -0.0067 C.ar    1  LIG1        0.1357
     26 O           8.1960    2.2549   -0.0053 O.2     1  LIG1       -0.4548
     27 H           8.3135   -1.2809   -0.0053 H       1  LIG1        0.0656
     28 H          10.9616    0.0479   -0.0082 H       1  LIG1        0.0656
     29 C          11.7116    2.9686   -0.0071 C.ar    1  LIG1       -0.0511
     30 C          12.4646    4.1586   -0.0064 C.ar    1  LIG1       -0.0611
     31 C          10.3063    3.0822   -0.0075 C.ar    1  LIG1        0.0173
     32 C          11.8478    5.4077   -0.0067 C.ar    1  LIG1       -0.0617
     33 H          13.5504    4.0938   -0.0059 H       1  LIG1        0.0618
     34 C           9.6900    4.3289   -0.0077 C.ar    1  LIG1       -0.0511
     35 C          10.4554    5.4997   -0.0074 C.ar    1  LIG1       -0.0611
     36 H           8.6047    4.3903   -0.0079 H       1  LIG1        0.0625
     37 H          12.5739    6.4861   -0.0061 H       1  LIG1        0.0618
     38 H          12.3439    1.8327   -0.0071 H       1  LIG1        0.0625
     39 H           9.8738    6.6623   -0.0075 H       1  LIG1        0.0618
@<TRIPOS>BOND
     1    28    24    1
     2    36    34    1
     3    34    31   ar
     4    34    35   ar
     5    39    35    1
     6    31    29   ar
     7    31    25    1
     8    35    32   ar
     9    29    38    1
    10    29    30   ar
    11    24    25   ar
    12    24    23   ar
    13    25    26   ar
    14    32    30   ar
    15    32    37    1
    16    30    33    1
    17    23    27    1
    18    23    22   ar
    19    26    22   ar
    20    22    15    1
    21    16    13    1
    22    15    13   ar
    23    15    18   ar
    24    13    12   ar
    25    21    18    1
    26    18    17   ar
    27    12    20    1
    28    12    14   ar
    29    11     7    1
    30     7     6   ar
    31     7     4   ar
    32    17    14   ar
    33    17    19    1
    34    14     4    1
    35     6     8    1
    36     6     3   ar
    37     4     2   ar
    38     1     3   ar
    39     1     2   ar
    40     1    10    1
    41     3     9    1
    42     2     5    1
