@<TRIPOS>MOLECULE
mol_data/noopt/geoms/mol2/44-12.out
 29 31 0 0 0
SMALL
GASTEIGER

@<TRIPOS>ATOM
      1 C           0.0509    0.0309    0.0002 C.ar    1  LIG1       -0.0612
      2 C           1.4592    0.0309    0.0002 C.ar    1  LIG1       -0.0540
      3 C          -0.6045    1.2792    0.0002 C.ar    1  LIG1       -0.0617
      4 C           2.1849    1.2200   -0.0004 C.ar    1  LIG1       -0.0179
      5 H           1.9850   -0.9213    0.0004 H       1  LIG1        0.0624
      6 C           0.1195    2.4666   -0.0004 C.ar    1  LIG1       -0.0612
      7 C           1.5181    2.4458   -0.0008 C.ar    1  LIG1       -0.0540
      8 H          -0.4090    3.4165   -0.0003 H       1  LIG1        0.0618
      9 H          -1.9035    1.3287    0.0016 H       1  LIG1        0.0618
     10 H          -0.5708   -1.1108    0.0005 H       1  LIG1        0.0618
     11 H           2.1896    3.5590   -0.0012 H       1  LIG1        0.0624
     12 C           4.2212    2.3851   -0.0013 C.ar    1  LIG1       -0.0534
     13 C           5.6264    2.2916   -0.0029 C.ar    1  LIG1       -0.0505
     14 C           3.4843    1.1831   -0.0005 C.ar    1  LIG1       -0.0178
     15 C           6.2715    1.0569   -0.0031 C.ar    1  LIG1        0.0173
     16 H           6.2143    3.2067   -0.0038 H       1  LIG1        0.0625
     17 C           4.1278   -0.0498   -0.0007 C.ar    1  LIG1       -0.0534
     18 C           5.5247   -0.1219   -0.0019 C.ar    1  LIG1       -0.0505
     19 H           3.5374   -0.9625   -0.0001 H       1  LIG1        0.0624
     20 H           3.6767    3.5656   -0.0009 H       1  LIG1        0.0624
     21 H           6.1208   -1.2772   -0.0022 H       1  LIG1        0.0625
     22 C           7.5705    1.0074   -0.0045 C.ar    1  LIG1        0.1348
     23 C           8.5164    0.0032   -0.0056 C.ar    1  LIG1       -0.0159
     24 C           9.8107    0.6525   -0.0069 C.ar    1  LIG1       -0.0233
     25 C           9.5698    2.0110   -0.0067 C.ar    1  LIG1        0.0926
     26 O           8.1960    2.2549   -0.0053 O.2     1  LIG1       -0.4629
     27 H          10.3063    3.0823   -0.0075 H       1  LIG1        0.1029
     28 H           8.3135   -1.2809   -0.0053 H       1  LIG1        0.0655
     29 H          10.9616    0.0479   -0.0082 H       1  LIG1        0.0649
@<TRIPOS>BOND
     1    29    24    1
     2    27    25    1
     3    24    25   ar
     4    24    23   ar
     5    25    26   ar
     6    23    28    1
     7    23    22   ar
     8    26    22   ar
     9    22    15    1
    10    16    13    1
    11    15    13   ar
    12    15    18   ar
    13    13    12   ar
    14    21    18    1
    15    18    17   ar
    16    12    20    1
    17    12    14   ar
    18    11     7    1
    19     7     6   ar
    20     7     4   ar
    21    17    14   ar
    22    17    19    1
    23    14     4    1
    24     6     8    1
    25     6     3   ar
    26     4     2   ar
    27     1     3   ar
    28     1     2   ar
    29     1    10    1
    30     3     9    1
    31     2     5    1
