@<TRIPOS>MOLECULE
mol_data/noopt/geoms/mol2/44-4-12-.out
 39 42 0 0 0
SMALL
GASTEIGER

@<TRIPOS>ATOM
      1 C           0.0509    0.0309    0.0002 C.ar    1  LIG1       -0.0612
      2 C           1.4592    0.0309    0.0002 C.ar    1  LIG1       -0.0540
      3 C          -0.6045    1.2792    0.0002 C.ar    1  LIG1       -0.0617
      4 C           2.1849    1.2200   -0.0004 C.ar    1  LIG1       -0.0179
      5 H           1.9850   -0.9213    0.0004 H       1  LIG1        0.0624
      6 C           0.1195    2.4666   -0.0004 C.ar    1  LIG1       -0.0612
      7 C           1.5181    2.4458   -0.0008 C.ar    1  LIG1       -0.0540
      8 H          -0.4090    3.4165   -0.0003 H       1  LIG1        0.0618
      9 H          -1.9035    1.3287    0.0016 H       1  LIG1        0.0618
     10 H          -0.5708   -1.1108    0.0005 H       1  LIG1        0.0618
     11 H           2.1896    3.5590   -0.0012 H       1  LIG1        0.0624
     12 C           4.2212    2.3851   -0.0013 C.ar    1  LIG1       -0.0535
     13 C           5.6264    2.2916   -0.0029 C.ar    1  LIG1       -0.0535
     14 C           3.4843    1.1831   -0.0005 C.ar    1  LIG1       -0.0178
     15 C           6.2715    1.0569   -0.0031 C.ar    1  LIG1       -0.0178
     16 H           6.2143    3.2067   -0.0038 H       1  LIG1        0.0624
     17 C           4.1278   -0.0498   -0.0007 C.ar    1  LIG1       -0.0535
     18 C           5.5247   -0.1219   -0.0019 C.ar    1  LIG1       -0.0535
     19 H           3.5374   -0.9625   -0.0001 H       1  LIG1        0.0624
     20 H           3.6767    3.5656   -0.0009 H       1  LIG1        0.0624
     21 H           6.1208   -1.2772   -0.0022 H       1  LIG1        0.0624
     22 C           8.3190    2.2022   -0.0060 C.ar    1  LIG1       -0.0534
     23 C           9.7232    2.0950   -0.0091 C.ar    1  LIG1       -0.0505
     24 C           7.5705    1.0074   -0.0045 C.ar    1  LIG1       -0.0178
     25 C          10.3563    0.8541   -0.0099 C.ar    1  LIG1        0.0173
     26 H          10.3199    3.0044   -0.0105 H       1  LIG1        0.0625
     27 C           8.2020   -0.2317   -0.0054 C.ar    1  LIG1       -0.0534
     28 C           9.5982   -0.3174   -0.0080 C.ar    1  LIG1       -0.0505
     29 H           7.6028   -1.1386   -0.0043 H       1  LIG1        0.0624
     30 H           7.7859    3.3879   -0.0051 H       1  LIG1        0.0624
     31 H          10.1830   -1.4784   -0.0090 H       1  LIG1        0.0625
     32 C          11.6548    0.7920   -0.0126 C.ar    1  LIG1        0.1348
     33 C          12.6833    1.7114   -0.0147 C.ar    1  LIG1       -0.0159
     34 C          13.9172    0.9535   -0.0173 C.ar    1  LIG1       -0.0233
     35 C          13.5607   -0.3794   -0.0166 C.ar    1  LIG1        0.0926
     36 O          12.1710   -0.5046   -0.0137 O.2     1  LIG1       -0.4629
     37 H          14.2025   -1.5099   -0.0181 H       1  LIG1        0.1029
     38 H          12.5913    3.0082   -0.0144 H       1  LIG1        0.0655
     39 H          15.1157    1.4571   -0.0197 H       1  LIG1        0.0649
@<TRIPOS>BOND
     1    39    34    1
     2    37    35    1
     3    34    35   ar
     4    34    33   ar
     5    35    36   ar
     6    33    38    1
     7    33    32   ar
     8    36    32   ar
     9    32    25    1
    10    26    23    1
    11    25    23   ar
    12    25    28   ar
    13    23    22   ar
    14    31    28    1
    15    28    27   ar
    16    22    30    1
    17    22    24   ar
    18    27    24   ar
    19    27    29    1
    20    24    15    1
    21    16    13    1
    22    15    13   ar
    23    15    18   ar
    24    13    12   ar
    25    21    18    1
    26    18    17   ar
    27    12    20    1
    28    12    14   ar
    29    11     7    1
    30     7     6   ar
    31     7     4   ar
    32    17    14   ar
    33    17    19    1
    34    14     4    1
    35     6     8    1
    36     6     3   ar
    37     4     2   ar
    38     1     3   ar
    39     1     2   ar
    40     1    10    1
    41     3     9    1
    42     2     5    1
