@<TRIPOS>MOLECULE
mol_data/noopt/geoms/mol2/44-5-12-.out
 36 39 0 0 0
SMALL
GASTEIGER

@<TRIPOS>ATOM
      1 C           0.0509    0.0309    0.0002 C.ar    1  LIG1       -0.0612
      2 C           1.4592    0.0309    0.0002 C.ar    1  LIG1       -0.0540
      3 C          -0.6045    1.2792    0.0002 C.ar    1  LIG1       -0.0617
      4 C           2.1849    1.2200   -0.0004 C.ar    1  LIG1       -0.0179
      5 H           1.9850   -0.9213    0.0004 H       1  LIG1        0.0624
      6 C           0.1195    2.4666   -0.0004 C.ar    1  LIG1       -0.0612
      7 C           1.5181    2.4458   -0.0008 C.ar    1  LIG1       -0.0540
      8 H          -0.4090    3.4165   -0.0003 H       1  LIG1        0.0618
      9 H          -1.9035    1.3287    0.0016 H       1  LIG1        0.0618
     10 H          -0.5708   -1.1108    0.0005 H       1  LIG1        0.0618
     11 H           2.1896    3.5590   -0.0012 H       1  LIG1        0.0624
     12 C           4.2212    2.3851   -0.0013 C.ar    1  LIG1       -0.0534
     13 C           5.6264    2.2916   -0.0029 C.ar    1  LIG1       -0.0530
     14 C           3.4843    1.1831   -0.0005 C.ar    1  LIG1       -0.0178
     15 C           6.2715    1.0569   -0.0031 C.ar    1  LIG1       -0.0113
     16 H           6.2143    3.2067   -0.0038 H       1  LIG1        0.0624
     17 C           4.1278   -0.0498   -0.0007 C.ar    1  LIG1       -0.0534
     18 C           5.5247   -0.1219   -0.0019 C.ar    1  LIG1       -0.0530
     19 H           3.5374   -0.9625   -0.0001 H       1  LIG1        0.0624
     20 H           3.6767    3.5656   -0.0009 H       1  LIG1        0.0624
     21 H           6.1208   -1.2772   -0.0022 H       1  LIG1        0.0624
     22 C           7.5705    1.0074   -0.0045 C.ar    1  LIG1        0.0200
     23 C           8.4158    2.0947   -0.0053 C.ar    1  LIG1       -0.0462
     24 C           9.7901    1.6918   -0.0060 C.ar    1  LIG1       -0.0434
     25 C           9.9145    0.3203   -0.0066 C.ar    1  LIG1        0.0550
     26 S           8.4213   -0.4323   -0.0056 S.2     1  LIG1       -0.0852
     27 H           8.0405    3.3393   -0.0051 H       1  LIG1        0.0629
     28 H          10.7780    2.5368   -0.0061 H       1  LIG1        0.0630
     29 C          11.0346   -0.3396   -0.0080 C.ar    1  LIG1        0.1413
     30 C          12.3729   -0.0051   -0.0090 C.ar    1  LIG1       -0.0154
     31 C          13.1117   -1.2506   -0.0104 C.ar    1  LIG1       -0.0233
     32 C          12.1754   -2.2639   -0.0100 C.ar    1  LIG1        0.0926
     33 O          10.8874   -1.7274   -0.0085 O.2     1  LIG1       -0.4624
     34 H          12.2167   -3.5633   -0.0108 H       1  LIG1        0.1029
     35 H          12.8956    1.1852   -0.0089 H       1  LIG1        0.0655
     36 H          14.4068   -1.3632   -0.0116 H       1  LIG1        0.0649
@<TRIPOS>BOND
     1    36    31    1
     2    34    32    1
     3    31    32   ar
     4    31    30   ar
     5    32    33   ar
     6    30    35    1
     7    30    29   ar
     8    33    29   ar
     9    29    25    1
    10    25    24   ar
    11    25    26   ar
    12    28    24    1
    13    24    23   ar
    14    26    22   ar
    15    23    27    1
    16    23    22   ar
    17    22    15    1
    18    16    13    1
    19    15    13   ar
    20    15    18   ar
    21    13    12   ar
    22    21    18    1
    23    18    17   ar
    24    12    20    1
    25    12    14   ar
    26    11     7    1
    27     7     6   ar
    28     7     4   ar
    29    17    14   ar
    30    17    19    1
    31    14     4    1
    32     6     8    1
    33     6     3   ar
    34     4     2   ar
    35     1     3   ar
    36     1     2   ar
    37     1    10    1
    38     3     9    1
    39     2     5    1
