@<TRIPOS>MOLECULE
mol_data/noopt/geoms/mol2/44-84.out
 38 41 0 0 0
SMALL
GASTEIGER

@<TRIPOS>ATOM
      1 C           0.0509    0.0309    0.0002 C.ar    1  LIG1       -0.0612
      2 C           1.4592    0.0309    0.0002 C.ar    1  LIG1       -0.0540
      3 C          -0.6045    1.2792    0.0002 C.ar    1  LIG1       -0.0617
      4 C           2.1849    1.2200   -0.0004 C.ar    1  LIG1       -0.0179
      5 H           1.9850   -0.9213    0.0004 H       1  LIG1        0.0624
      6 C           0.1195    2.4666   -0.0004 C.ar    1  LIG1       -0.0612
      7 C           1.5181    2.4458   -0.0008 C.ar    1  LIG1       -0.0540
      8 H          -0.4090    3.4165   -0.0003 H       1  LIG1        0.0618
      9 H          -1.9035    1.3287    0.0016 H       1  LIG1        0.0618
     10 H          -0.5708   -1.1108    0.0005 H       1  LIG1        0.0618
     11 H           2.1896    3.5590   -0.0012 H       1  LIG1        0.0624
     12 C           4.2212    2.3851   -0.0013 C.ar    1  LIG1       -0.0534
     13 C           5.6264    2.2916   -0.0029 C.ar    1  LIG1       -0.0504
     14 C           3.4843    1.1831   -0.0005 C.ar    1  LIG1       -0.0178
     15 C           6.2715    1.0569   -0.0031 C.ar    1  LIG1        0.0227
     16 H           6.2143    3.2067   -0.0038 H       1  LIG1        0.0625
     17 C           4.1278   -0.0498   -0.0007 C.ar    1  LIG1       -0.0534
     18 C           5.5247   -0.1219   -0.0019 C.ar    1  LIG1       -0.0504
     19 H           3.5374   -0.9625   -0.0001 H       1  LIG1        0.0624
     20 H           3.6767    3.5656   -0.0009 H       1  LIG1        0.0624
     21 H           6.1208   -1.2772   -0.0022 H       1  LIG1        0.0625
     22 C           7.5706    1.0074   -0.0045 C.ar    1  LIG1        0.2034
     23 N           8.1326   -0.2323   -0.0052 N.ar    1  LIG1       -0.1252
     24 C          10.2643    0.9048   -0.0074 C.ar    1  LIG1        0.2034
     25 N           8.2253    2.2007   -0.0052 N.ar    1  LIG1       -0.1252
     26 N           9.4816   -0.2661   -0.0066 N.ar    1  LIG1       -0.1252
     27 N           9.5730    2.1318   -0.0067 N.ar    1  LIG1       -0.1252
     28 C          12.2187   -0.3930   -0.0088 C.ar    1  LIG1       -0.0509
     29 C          13.6270   -0.3930   -0.0088 C.ar    1  LIG1       -0.0611
     30 C          11.5633    0.8553   -0.0088 C.ar    1  LIG1        0.0226
     31 C          14.3527    0.7961   -0.0094 C.ar    1  LIG1       -0.0617
     32 H          14.1528   -1.3452   -0.0086 H       1  LIG1        0.0618
     33 C          12.2873    2.0427   -0.0094 C.ar    1  LIG1       -0.0509
     34 C          13.6859    2.0219   -0.0098 C.ar    1  LIG1       -0.0611
     35 H          11.7588    2.9926   -0.0093 H       1  LIG1        0.0625
     36 H          15.6522    0.7592   -0.0095 H       1  LIG1        0.0618
     37 H          11.5969   -1.5347   -0.0085 H       1  LIG1        0.0625
     38 H          14.3573    3.1351   -0.0102 H       1  LIG1        0.0618
@<TRIPOS>BOND
     1    38    34    1
     2    34    33   ar
     3    34    31   ar
     4    36    31    1
     5    33    35    1
     6    33    30   ar
     7    31    29   ar
     8    30    28   ar
     9    30    24    1
    10    29    28   ar
    11    29    32    1
    12    28    37    1
    13    24    27   ar
    14    24    26   ar
    15    27    25   ar
    16    26    23   ar
    17    25    22   ar
    18    23    22   ar
    19    22    15    1
    20    16    13    1
    21    15    13   ar
    22    15    18   ar
    23    13    12   ar
    24    21    18    1
    25    18    17   ar
    26    12    20    1
    27    12    14   ar
    28    11     7    1
    29     7     6   ar
    30     7     4   ar
    31    17    14   ar
    32    17    19    1
    33    14     4    1
    34     6     8    1
    35     6     3   ar
    36     4     2   ar
    37     1     3   ar
    38     1     2   ar
    39     1    10    1
    40     3     9    1
    41     2     5    1
