@<TRIPOS>MOLECULE
mol_data/noopt/geoms/mol2/44-813.out
 36 39 0 0 0
SMALL
GASTEIGER

@<TRIPOS>ATOM
      1 C           0.0509    0.0309    0.0002 C.ar    1  LIG1       -0.0612
      2 C           1.4592    0.0309    0.0002 C.ar    1  LIG1       -0.0540
      3 C          -0.6045    1.2792    0.0002 C.ar    1  LIG1       -0.0617
      4 C           2.1849    1.2200   -0.0004 C.ar    1  LIG1       -0.0179
      5 H           1.9850   -0.9213    0.0004 H       1  LIG1        0.0624
      6 C           0.1195    2.4666   -0.0004 C.ar    1  LIG1       -0.0612
      7 C           1.5181    2.4458   -0.0008 C.ar    1  LIG1       -0.0540
      8 H          -0.4090    3.4165   -0.0003 H       1  LIG1        0.0618
      9 H          -1.9035    1.3287    0.0016 H       1  LIG1        0.0618
     10 H          -0.5708   -1.1108    0.0005 H       1  LIG1        0.0618
     11 H           2.1896    3.5590   -0.0012 H       1  LIG1        0.0624
     12 C           4.2212    2.3851   -0.0013 C.ar    1  LIG1       -0.0534
     13 C           5.6264    2.2916   -0.0029 C.ar    1  LIG1       -0.0504
     14 C           3.4843    1.1831   -0.0005 C.ar    1  LIG1       -0.0178
     15 C           6.2715    1.0569   -0.0031 C.ar    1  LIG1        0.0227
     16 H           6.2143    3.2067   -0.0038 H       1  LIG1        0.0625
     17 C           4.1278   -0.0498   -0.0007 C.ar    1  LIG1       -0.0534
     18 C           5.5247   -0.1219   -0.0019 C.ar    1  LIG1       -0.0504
     19 H           3.5374   -0.9625   -0.0001 H       1  LIG1        0.0624
     20 H           3.6767    3.5656   -0.0009 H       1  LIG1        0.0624
     21 H           6.1208   -1.2772   -0.0022 H       1  LIG1        0.0625
     22 C           7.5706    1.0074   -0.0045 C.ar    1  LIG1        0.2034
     23 N           8.1326   -0.2323   -0.0052 N.ar    1  LIG1       -0.1252
     24 C          10.2643    0.9048   -0.0074 C.ar    1  LIG1        0.2194
     25 N           8.2253    2.2007   -0.0052 N.ar    1  LIG1       -0.1252
     26 N           9.4816   -0.2661   -0.0066 N.ar    1  LIG1       -0.1237
     27 N           9.5730    2.1318   -0.0067 N.ar    1  LIG1       -0.1237
     28 C          11.5633    0.8553   -0.0088 C.ar    1  LIG1        0.0875
     29 C          12.4053   -0.2120   -0.0101 C.ar    1  LIG1       -0.0333
     30 C          13.7431    0.2987   -0.0102 C.ar    1  LIG1       -0.0437
     31 C          13.6599    1.6555   -0.0108 C.ar    1  LIG1        0.0023
     32 N          12.3272    2.0006   -0.0094 N.ar    1  LIG1       -0.3582
     33 H          11.9727    2.9293   -0.0096 H       1  LIG1        0.1654
     34 H          14.5956    2.5580   -0.0112 H       1  LIG1        0.0807
     35 H          12.0563   -1.4643   -0.0097 H       1  LIG1        0.0640
     36 H          14.8377   -0.4027   -0.0103 H       1  LIG1        0.0633
@<TRIPOS>BOND
     1    34    31    1
     2    31    30   ar
     3    31    32   ar
     4    36    30    1
     5    30    29   ar
     6    29    35    1
     7    29    28   ar
     8    33    32    1
     9    32    28   ar
    10    28    24    1
    11    24    27   ar
    12    24    26   ar
    13    27    25   ar
    14    26    23   ar
    15    25    22   ar
    16    23    22   ar
    17    22    15    1
    18    16    13    1
    19    15    13   ar
    20    15    18   ar
    21    13    12   ar
    22    21    18    1
    23    18    17   ar
    24    12    20    1
    25    12    14   ar
    26    11     7    1
    27     7     6   ar
    28     7     4   ar
    29    17    14   ar
    30    17    19    1
    31    14     4    1
    32     6     8    1
    33     6     3   ar
    34     4     2   ar
    35     1     3   ar
    36     1     2   ar
    37     1    10    1
    38     3     9    1
    39     2     5    1
