@<TRIPOS>MOLECULE
mol_data/noopt/geoms/mol2/44-8-.out
 28 30 0 0 0
SMALL
GASTEIGER

@<TRIPOS>ATOM
      1 C           0.0509    0.0309    0.0002 C.ar    1  LIG1       -0.0612
      2 C           1.4592    0.0309    0.0002 C.ar    1  LIG1       -0.0540
      3 C          -0.6045    1.2792    0.0002 C.ar    1  LIG1       -0.0617
      4 C           2.1849    1.2200   -0.0004 C.ar    1  LIG1       -0.0179
      5 H           1.9850   -0.9213    0.0004 H       1  LIG1        0.0624
      6 C           0.1195    2.4666   -0.0004 C.ar    1  LIG1       -0.0612
      7 C           1.5181    2.4458   -0.0008 C.ar    1  LIG1       -0.0540
      8 H          -0.4090    3.4165   -0.0003 H       1  LIG1        0.0618
      9 H          -1.9035    1.3287    0.0016 H       1  LIG1        0.0618
     10 H          -0.5708   -1.1108    0.0005 H       1  LIG1        0.0618
     11 H           2.1896    3.5590   -0.0012 H       1  LIG1        0.0624
     12 C           4.2212    2.3851   -0.0013 C.ar    1  LIG1       -0.0534
     13 C           5.6264    2.2916   -0.0029 C.ar    1  LIG1       -0.0504
     14 C           3.4843    1.1831   -0.0005 C.ar    1  LIG1       -0.0178
     15 C           6.2715    1.0569   -0.0031 C.ar    1  LIG1        0.0227
     16 H           6.2143    3.2067   -0.0038 H       1  LIG1        0.0625
     17 C           4.1278   -0.0498   -0.0007 C.ar    1  LIG1       -0.0534
     18 C           5.5247   -0.1219   -0.0019 C.ar    1  LIG1       -0.0504
     19 H           3.5374   -0.9625   -0.0001 H       1  LIG1        0.0624
     20 H           3.6767    3.5656   -0.0009 H       1  LIG1        0.0624
     21 H           6.1208   -1.2772   -0.0022 H       1  LIG1        0.0625
     22 C           7.5706    1.0074   -0.0045 C.ar    1  LIG1        0.2033
     23 N           8.2253    2.2007   -0.0052 N.ar    1  LIG1       -0.1258
     24 C          10.2643    0.9046   -0.0074 C.ar    1  LIG1        0.1605
     25 N           8.1326   -0.2323   -0.0052 N.ar    1  LIG1       -0.1258
     26 N           9.5730    2.1317   -0.0066 N.ar    1  LIG1       -0.1339
     27 N           9.4817   -0.2662   -0.0065 N.ar    1  LIG1       -0.1339
     28 H          11.5633    0.8551   -0.0088 H       1  LIG1        0.1085
@<TRIPOS>BOND
     1    28    24    1
     2    24    26   ar
     3    24    27   ar
     4    26    23   ar
     5    27    25   ar
     6    25    22   ar
     7    23    22   ar
     8    22    15    1
     9    16    13    1
    10    15    13   ar
    11    15    18   ar
    12    13    12   ar
    13    21    18    1
    14    18    17   ar
    15    12    20    1
    16    12    14   ar
    17    11     7    1
    18     7     4   ar
    19     7     6   ar
    20    17    14   ar
    21    17    19    1
    22    14     4    1
    23     4     2   ar
    24     6     8    1
    25     6     3   ar
    26     2     1   ar
    27     2     5    1
    28     3     1   ar
    29     3     9    1
    30     1    10    1
