@<TRIPOS>MOLECULE
mol_data/noopt/geoms/mol2/441212-.out
 36 39 0 0 0
SMALL
GASTEIGER

@<TRIPOS>ATOM
      1 C           0.0509    0.0309    0.0002 C.ar    1  LIG1       -0.0612
      2 C           1.4592    0.0309    0.0002 C.ar    1  LIG1       -0.0540
      3 C          -0.6045    1.2792    0.0002 C.ar    1  LIG1       -0.0617
      4 C           2.1849    1.2200   -0.0004 C.ar    1  LIG1       -0.0179
      5 H           1.9850   -0.9213    0.0004 H       1  LIG1        0.0624
      6 C           0.1195    2.4666   -0.0004 C.ar    1  LIG1       -0.0612
      7 C           1.5181    2.4458   -0.0008 C.ar    1  LIG1       -0.0540
      8 H          -0.4090    3.4165   -0.0003 H       1  LIG1        0.0618
      9 H          -1.9035    1.3287    0.0016 H       1  LIG1        0.0618
     10 H          -0.5708   -1.1108    0.0005 H       1  LIG1        0.0618
     11 H           2.1896    3.5590   -0.0012 H       1  LIG1        0.0624
     12 C           4.1518   -0.0588    0.0002 C.ar    1  LIG1       -0.0534
     13 C           5.5600   -0.0451    0.0016 C.ar    1  LIG1       -0.0505
     14 C           3.4843    1.1831   -0.0005 C.ar    1  LIG1       -0.0178
     15 C           6.2742    1.1510    0.0017 C.ar    1  LIG1        0.0173
     16 H           6.0950   -0.9922    0.0024 H       1  LIG1        0.0625
     17 C           4.1968    2.3775   -0.0004 C.ar    1  LIG1       -0.0534
     18 C           5.5955    2.3702    0.0006 C.ar    1  LIG1       -0.0505
     19 H           3.6591    3.3222   -0.0009 H       1  LIG1        0.0624
     20 H           3.5412   -1.2064   -0.0001 H       1  LIG1        0.0624
     21 H           6.2561    3.4899    0.0008 H       1  LIG1        0.0625
     22 C           7.5739    1.1267    0.0029 C.ar    1  LIG1        0.1358
     23 C           8.5391    0.1410    0.0038 C.ar    1  LIG1       -0.0151
     24 C           9.8206    0.8153    0.0050 C.ar    1  LIG1       -0.0122
     25 C           9.5534    2.1689    0.0046 C.ar    1  LIG1        0.1705
     26 O           8.1751    2.3861    0.0032 O.2     1  LIG1       -0.4517
     27 H           8.3612   -1.1468    0.0038 H       1  LIG1        0.0656
     28 H          10.9830    0.2332    0.0061 H       1  LIG1        0.0657
     29 C          10.2689    3.2542    0.0052 C.ar    1  LIG1        0.1697
     30 C          10.0024    4.6078    0.0057 C.ar    1  LIG1       -0.0128
     31 C          11.2836    5.2827    0.0064 C.ar    1  LIG1       -0.0232
     32 C          12.2484    4.2964    0.0063 C.ar    1  LIG1        0.0927
     33 O          11.6475    3.0371    0.0057 O.2     1  LIG1       -0.4598
     34 H          13.5481    4.2721    0.0066 H       1  LIG1        0.1029
     35 H           8.8400    5.1899    0.0056 H       1  LIG1        0.0656
     36 H          11.4615    6.5705    0.0069 H       1  LIG1        0.0649
@<TRIPOS>BOND
     1    11     7    1
     2    19    17    1
     3     7     4   ar
     4     7     6   ar
     5    14    17   ar
     6    14     4    1
     7    14    12   ar
     8    17    18   ar
     9     4     2   ar
    10     6     8    1
    11     6     3   ar
    12    20    12    1
    13     1     3   ar
    14     1     2   ar
    15     1    10    1
    16     3     9    1
    17     2     5    1
    18    12    13   ar
    19    18    21    1
    20    18    15   ar
    21    13    15   ar
    22    13    16    1
    23    15    22    1
    24    22    26   ar
    25    22    23   ar
    26    26    25   ar
    27    27    23    1
    28    23    24   ar
    29    25    24   ar
    30    25    29    1
    31    24    28    1
    32    29    33   ar
    33    29    30   ar
    34    35    30    1
    35    33    32   ar
    36    30    31   ar
    37    32    31   ar
    38    32    34    1
    39    31    36    1
