@<TRIPOS>MOLECULE
mol_data/noopt/geoms/mol2/444-.out
 32 34 0 0 0
SMALL
GASTEIGER

@<TRIPOS>ATOM
      1 C           0.0509    0.0309    0.0002 C.ar    1  LIG1       -0.0612
      2 C           1.4592    0.0309    0.0002 C.ar    1  LIG1       -0.0540
      3 C          -0.6045    1.2792    0.0002 C.ar    1  LIG1       -0.0617
      4 C           2.1849    1.2200   -0.0004 C.ar    1  LIG1       -0.0179
      5 H           1.9850   -0.9213    0.0004 H       1  LIG1        0.0624
      6 C           0.1195    2.4666   -0.0004 C.ar    1  LIG1       -0.0612
      7 C           1.5181    2.4458   -0.0008 C.ar    1  LIG1       -0.0540
      8 H          -0.4090    3.4165   -0.0003 H       1  LIG1        0.0618
      9 H          -1.9035    1.3287    0.0016 H       1  LIG1        0.0618
     10 H          -0.5708   -1.1108    0.0005 H       1  LIG1        0.0618
     11 H           2.1896    3.5590   -0.0012 H       1  LIG1        0.0624
     12 C           4.1518   -0.0588    0.0002 C.ar    1  LIG1       -0.0535
     13 C           5.5600   -0.0451    0.0016 C.ar    1  LIG1       -0.0535
     14 C           3.4843    1.1831   -0.0005 C.ar    1  LIG1       -0.0178
     15 C           6.2742    1.1510    0.0017 C.ar    1  LIG1       -0.0178
     16 H           6.0950   -0.9922    0.0024 H       1  LIG1        0.0624
     17 C           4.1968    2.3775   -0.0004 C.ar    1  LIG1       -0.0535
     18 C           5.5955    2.3702    0.0006 C.ar    1  LIG1       -0.0535
     19 H           3.6591    3.3222   -0.0009 H       1  LIG1        0.0624
     20 H           3.5412   -1.2064   -0.0001 H       1  LIG1        0.0624
     21 H           6.2561    3.4899    0.0008 H       1  LIG1        0.0624
     22 C           8.2991    2.3358    0.0028 C.ar    1  LIG1       -0.0540
     23 C           9.7051    2.2559    0.0026 C.ar    1  LIG1       -0.0612
     24 C           7.5739    1.1267    0.0029 C.ar    1  LIG1       -0.0179
     25 C          10.3621    1.0275    0.0031 C.ar    1  LIG1       -0.0617
     26 H          10.2841    3.1767    0.0023 H       1  LIG1        0.0618
     27 C           8.2293   -0.0999    0.0034 C.ar    1  LIG1       -0.0540
     28 C           9.6269   -0.1585    0.0036 C.ar    1  LIG1       -0.0612
     29 H           7.6478   -1.0183    0.0034 H       1  LIG1        0.0624
     30 H          11.6616    0.9906    0.0030 H       1  LIG1        0.0618
     31 H           7.7431    3.5109    0.0026 H       1  LIG1        0.0624
     32 H          10.2341   -1.3080    0.0039 H       1  LIG1        0.0618
@<TRIPOS>BOND
     1    11     7    1
     2    19    17    1
     3     7     4   ar
     4     7     6   ar
     5    14    17   ar
     6    14     4    1
     7    14    12   ar
     8    17    18   ar
     9     4     2   ar
    10     6     8    1
    11     6     3   ar
    12    20    12    1
    13     1     3   ar
    14     1     2   ar
    15     1    10    1
    16     3     9    1
    17     2     5    1
    18    12    13   ar
    19    18    21    1
    20    18    15   ar
    21    13    15   ar
    22    13    16    1
    23    15    24    1
    24    26    23    1
    25    23    22   ar
    26    23    25   ar
    27    31    22    1
    28    22    24   ar
    29    24    27   ar
    30    30    25    1
    31    25    28   ar
    32    29    27    1
    33    27    28   ar
    34    28    32    1
