@<TRIPOS>MOLECULE
mol_data/noopt/geoms/mol2/445-4-.out
 39 42 0 0 0
SMALL
GASTEIGER

@<TRIPOS>ATOM
      1 C           0.0509    0.0309    0.0002 C.ar    1  LIG1       -0.0612
      2 C           1.4592    0.0309    0.0002 C.ar    1  LIG1       -0.0540
      3 C          -0.6045    1.2792    0.0002 C.ar    1  LIG1       -0.0617
      4 C           2.1849    1.2200   -0.0004 C.ar    1  LIG1       -0.0179
      5 H           1.9850   -0.9213    0.0004 H       1  LIG1        0.0624
      6 C           0.1195    2.4666   -0.0004 C.ar    1  LIG1       -0.0612
      7 C           1.5181    2.4458   -0.0008 C.ar    1  LIG1       -0.0540
      8 H          -0.4090    3.4165   -0.0003 H       1  LIG1        0.0618
      9 H          -1.9035    1.3287    0.0016 H       1  LIG1        0.0618
     10 H          -0.5708   -1.1108    0.0005 H       1  LIG1        0.0618
     11 H           2.1896    3.5590   -0.0012 H       1  LIG1        0.0624
     12 C           4.1518   -0.0588    0.0002 C.ar    1  LIG1       -0.0534
     13 C           5.5600   -0.0451    0.0016 C.ar    1  LIG1       -0.0530
     14 C           3.4843    1.1831   -0.0005 C.ar    1  LIG1       -0.0178
     15 C           6.2742    1.1510    0.0017 C.ar    1  LIG1       -0.0113
     16 H           6.0950   -0.9922    0.0024 H       1  LIG1        0.0624
     17 C           4.1968    2.3775   -0.0004 C.ar    1  LIG1       -0.0534
     18 C           5.5955    2.3702    0.0006 C.ar    1  LIG1       -0.0530
     19 H           3.6591    3.3222   -0.0009 H       1  LIG1        0.0624
     20 H           3.5412   -1.2064   -0.0001 H       1  LIG1        0.0624
     21 H           6.2561    3.4899    0.0008 H       1  LIG1        0.0624
     22 C           7.5739    1.1267    0.0029 C.ar    1  LIG1        0.0199
     23 C           8.3979    2.2302    0.0038 C.ar    1  LIG1       -0.0463
     24 C           9.7798    1.8540    0.0058 C.ar    1  LIG1       -0.0463
     25 C           9.9308    0.4851    0.0055 C.ar    1  LIG1        0.0199
     26 S           8.4524   -0.2962    0.0036 S.2     1  LIG1       -0.0883
     27 H           7.9985    3.4673    0.0031 H       1  LIG1        0.0629
     28 H          10.7512    2.7180    0.0076 H       1  LIG1        0.0629
     29 C          12.2754    0.5676    0.0062 C.ar    1  LIG1       -0.0535
     30 C          13.4752   -0.1698    0.0056 C.ar    1  LIG1       -0.0612
     31 C          11.0634   -0.1528    0.0064 C.ar    1  LIG1       -0.0113
     32 C          13.4709   -1.5628    0.0060 C.ar    1  LIG1       -0.0617
     33 H          14.4218    0.3662    0.0052 H       1  LIG1        0.0618
     34 C          11.0586   -1.5435    0.0068 C.ar    1  LIG1       -0.0535
     35 C          12.2610   -2.2581    0.0066 C.ar    1  LIG1       -0.0612
     36 H          10.1109   -2.0761    0.0069 H       1  LIG1        0.0624
     37 H          14.5974   -2.2118    0.0056 H       1  LIG1        0.0618
     38 H          12.3434    1.8658    0.0061 H       1  LIG1        0.0624
     39 H          12.2503   -3.5580    0.0068 H       1  LIG1        0.0618
@<TRIPOS>BOND
     1    11     7    1
     2    19    17    1
     3     7     4   ar
     4     7     6   ar
     5    14    17   ar
     6    14     4    1
     7    14    12   ar
     8    17    18   ar
     9     4     2   ar
    10     6     8    1
    11     6     3   ar
    12    20    12    1
    13     1     3   ar
    14     1     2   ar
    15     1    10    1
    16     3     9    1
    17     2     5    1
    18    12    13   ar
    19    18    21    1
    20    18    15   ar
    21    13    15   ar
    22    13    16    1
    23    15    22    1
    24    22    26   ar
    25    22    23   ar
    26    27    23    1
    27    26    25   ar
    28    23    24   ar
    29    33    30    1
    30    25    24   ar
    31    25    31    1
    32    37    32    1
    33    30    32   ar
    34    30    29   ar
    35    24    28    1
    36    32    35   ar
    37    38    29    1
    38    29    31   ar
    39    31    34   ar
    40    35    34   ar
    41    35    39    1
    42    34    36    1
