@<TRIPOS>MOLECULE
mol_data/noopt/geoms/mol2/45-.out
 19 20 0 0 0
SMALL
GASTEIGER

@<TRIPOS>ATOM
      1 C           0.0509    0.0309    0.0002 C.ar    1  LIG1       -0.0612
      2 C           1.4592    0.0309    0.0002 C.ar    1  LIG1       -0.0535
      3 C          -0.6045    1.2792    0.0002 C.ar    1  LIG1       -0.0617
      4 C           2.1849    1.2200   -0.0004 C.ar    1  LIG1       -0.0113
      5 H           1.9850   -0.9213    0.0004 H       1  LIG1        0.0624
      6 C           0.1195    2.4666   -0.0004 C.ar    1  LIG1       -0.0612
      7 C           1.5181    2.4458   -0.0008 C.ar    1  LIG1       -0.0535
      8 H          -0.4090    3.4165   -0.0003 H       1  LIG1        0.0618
      9 H          -1.9035    1.3287    0.0016 H       1  LIG1        0.0618
     10 H          -0.5708   -1.1108    0.0005 H       1  LIG1        0.0618
     11 H           2.1896    3.5590   -0.0012 H       1  LIG1        0.0624
     12 C           3.4844    1.1831   -0.0005 C.ar    1  LIG1        0.0193
     13 C           4.3190    2.2786   -0.0004 C.ar    1  LIG1       -0.0469
     14 C           5.6972    1.8890    0.0002 C.ar    1  LIG1       -0.0541
     15 C           5.8349    0.5188   -0.0003 C.ar    1  LIG1       -0.0237
     16 S           4.3490   -0.2482   -0.0006 S.2     1  LIG1       -0.0967
     17 H           6.9614   -0.1302   -0.0005 H       1  LIG1        0.0693
     18 H           3.9317    3.5195   -0.0007 H       1  LIG1        0.0629
     19 H           6.6769    2.7436    0.0011 H       1  LIG1        0.0623
@<TRIPOS>BOND
     1    11     7    1
     2     7     6   ar
     3     7     4   ar
     4    18    13    1
     5    16    12   ar
     6    16    15   ar
     7    12    13   ar
     8    12     4    1
     9    17    15    1
    10    13    14   ar
    11     6     8    1
    12     6     3   ar
    13     4     2   ar
    14    15    14   ar
    15    14    19    1
    16     1     3   ar
    17     1     2   ar
    18     1    10    1
    19     3     9    1
    20     2     5    1
