@<TRIPOS>MOLECULE
mol_data/noopt/geoms/mol2/45-13-.out
 27 29 0 0 0
SMALL
GASTEIGER

@<TRIPOS>ATOM
      1 C           0.0509    0.0309    0.0002 C.ar    1  LIG1       -0.0612
      2 C           1.4592    0.0309    0.0002 C.ar    1  LIG1       -0.0535
      3 C          -0.6045    1.2792    0.0002 C.ar    1  LIG1       -0.0617
      4 C           2.1849    1.2200   -0.0004 C.ar    1  LIG1       -0.0113
      5 H           1.9850   -0.9213    0.0004 H       1  LIG1        0.0624
      6 C           0.1195    2.4666   -0.0004 C.ar    1  LIG1       -0.0612
      7 C           1.5181    2.4458   -0.0008 C.ar    1  LIG1       -0.0535
      8 H          -0.4090    3.4165   -0.0003 H       1  LIG1        0.0618
      9 H          -1.9035    1.3287    0.0016 H       1  LIG1        0.0618
     10 H          -0.5708   -1.1108    0.0005 H       1  LIG1        0.0618
     11 H           2.1896    3.5590   -0.0012 H       1  LIG1        0.0624
     12 C           3.4844    1.1831   -0.0005 C.ar    1  LIG1        0.0200
     13 C           4.3190    2.2786   -0.0004 C.ar    1  LIG1       -0.0463
     14 C           5.6972    1.8890    0.0002 C.ar    1  LIG1       -0.0449
     15 C           5.8349    0.5188   -0.0003 C.ar    1  LIG1        0.0360
     16 S           4.3490   -0.2482   -0.0006 S.2     1  LIG1       -0.0868
     17 H           3.9317    3.5195   -0.0007 H       1  LIG1        0.0629
     18 H           6.6769    2.7436    0.0011 H       1  LIG1        0.0630
     19 C           6.9614   -0.1302   -0.0005 C.ar    1  LIG1        0.0531
     20 C           8.2419    0.3259   -0.0001 C.ar    1  LIG1       -0.0359
     21 C           9.1034   -0.8180   -0.0018 C.ar    1  LIG1       -0.0438
     22 C           8.3113   -1.9229   -0.0013 C.ar    1  LIG1        0.0022
     23 N           6.9992   -1.5063   -0.0009 N.ar    1  LIG1       -0.3603
     24 H           6.2051   -2.1042   -0.0005 H       1  LIG1        0.1653
     25 H           8.6237   -3.1848   -0.0021 H       1  LIG1        0.0807
     26 H           8.6125    1.5720    0.0000 H       1  LIG1        0.0639
     27 H          10.4033   -0.8062   -0.0030 H       1  LIG1        0.0633
@<TRIPOS>BOND
     1    27    21    1
     2    25    22    1
     3    21    22   ar
     4    21    20   ar
     5    22    23   ar
     6    11     7    1
     7    23    19   ar
     8    23    24    1
     9     7     6   ar
    10     7     4   ar
    11    17    13    1
    12    16    12   ar
    13    16    15   ar
    14    12    13   ar
    15    12     4    1
    16    19    15    1
    17    19    20   ar
    18    13    14   ar
    19     6     8    1
    20     6     3   ar
    21     4     2   ar
    22    15    14   ar
    23    20    26    1
    24    14    18    1
    25     1     3   ar
    26     1     2   ar
    27     1    10    1
    28     3     9    1
    29     2     5    1
