@<TRIPOS>MOLECULE
mol_data/noopt/geoms/mol2/45-12.out
 26 28 0 0 0
SMALL
GASTEIGER

@<TRIPOS>ATOM
      1 C           0.0509    0.0309    0.0002 C.ar    1  LIG1       -0.0612
      2 C           1.4592    0.0309    0.0002 C.ar    1  LIG1       -0.0535
      3 C          -0.6045    1.2792    0.0002 C.ar    1  LIG1       -0.0617
      4 C           2.1849    1.2200   -0.0004 C.ar    1  LIG1       -0.0113
      5 H           1.9850   -0.9213    0.0004 H       1  LIG1        0.0624
      6 C           0.1195    2.4666   -0.0004 C.ar    1  LIG1       -0.0612
      7 C           1.5181    2.4458   -0.0008 C.ar    1  LIG1       -0.0535
      8 H          -0.4090    3.4165   -0.0003 H       1  LIG1        0.0618
      9 H          -1.9035    1.3287    0.0016 H       1  LIG1        0.0618
     10 H          -0.5708   -1.1108    0.0005 H       1  LIG1        0.0618
     11 H           2.1896    3.5590   -0.0012 H       1  LIG1        0.0624
     12 C           3.4844    1.1831   -0.0005 C.ar    1  LIG1        0.0200
     13 C           4.3190    2.2786   -0.0004 C.ar    1  LIG1       -0.0462
     14 C           5.6972    1.8890    0.0002 C.ar    1  LIG1       -0.0434
     15 C           5.8349    0.5188   -0.0003 C.ar    1  LIG1        0.0550
     16 S           4.3490   -0.2482   -0.0006 S.2     1  LIG1       -0.0852
     17 H           3.9317    3.5195   -0.0007 H       1  LIG1        0.0629
     18 H           6.6769    2.7436    0.0011 H       1  LIG1        0.0630
     19 C           6.9613   -0.1302   -0.0005 C.ar    1  LIG1        0.1413
     20 C           7.3305   -1.4594   -0.0007 C.ar    1  LIG1       -0.0154
     21 C           8.7783   -1.4878   -0.0009 C.ar    1  LIG1       -0.0233
     22 C           9.1980   -0.1734   -0.0009 C.ar    1  LIG1        0.0926
     23 O           8.0960    0.6824   -0.0008 O.2     1  LIG1       -0.4624
     24 H          10.3487    0.4314   -0.0010 H       1  LIG1        0.1029
     25 H           6.5528   -2.5011   -0.0005 H       1  LIG1        0.0655
     26 H           9.5151   -2.5588   -0.0011 H       1  LIG1        0.0649
@<TRIPOS>BOND
     1    11     7    1
     2    26    21    1
     3    24    22    1
     4    22    21   ar
     5    22    23   ar
     6    21    20   ar
     7     7     6   ar
     8     7     4   ar
     9    23    19   ar
    10    17    13    1
    11    20    25    1
    12    20    19   ar
    13    16    12   ar
    14    16    15   ar
    15    12    13   ar
    16    12     4    1
    17    19    15    1
    18    13    14   ar
    19     6     8    1
    20     6     3   ar
    21     4     2   ar
    22    15    14   ar
    23    14    18    1
    24     1     3   ar
    25     1     2   ar
    26     1    10    1
    27     3     9    1
    28     2     5    1
