@<TRIPOS>MOLECULE
mol_data/noopt/geoms/mol2/45-48-.out
 35 38 0 0 0
SMALL
GASTEIGER

@<TRIPOS>ATOM
      1 C           0.0509    0.0309    0.0002 C.ar    1  LIG1       -0.0612
      2 C           1.4592    0.0309    0.0002 C.ar    1  LIG1       -0.0535
      3 C          -0.6045    1.2792    0.0002 C.ar    1  LIG1       -0.0617
      4 C           2.1849    1.2200   -0.0004 C.ar    1  LIG1       -0.0113
      5 H           1.9850   -0.9213    0.0004 H       1  LIG1        0.0624
      6 C           0.1195    2.4666   -0.0004 C.ar    1  LIG1       -0.0612
      7 C           1.5181    2.4458   -0.0008 C.ar    1  LIG1       -0.0535
      8 H          -0.4090    3.4165   -0.0003 H       1  LIG1        0.0618
      9 H          -1.9035    1.3287    0.0016 H       1  LIG1        0.0618
     10 H          -0.5708   -1.1108    0.0005 H       1  LIG1        0.0618
     11 H           2.1896    3.5590   -0.0012 H       1  LIG1        0.0624
     12 C           3.4844    1.1831   -0.0005 C.ar    1  LIG1        0.0199
     13 C           4.3190    2.2786   -0.0004 C.ar    1  LIG1       -0.0463
     14 C           5.6972    1.8890    0.0002 C.ar    1  LIG1       -0.0463
     15 C           5.8349    0.5188   -0.0003 C.ar    1  LIG1        0.0199
     16 S           4.3490   -0.2482   -0.0006 S.2     1  LIG1       -0.0883
     17 H           3.9317    3.5195   -0.0007 H       1  LIG1        0.0629
     18 H           6.6769    2.7436    0.0011 H       1  LIG1        0.0629
     19 C           6.9598   -1.5401    0.0001 C.ar    1  LIG1       -0.0529
     20 C           8.2059   -2.1961    0.0014 C.ar    1  LIG1       -0.0503
     21 C           6.9613   -0.1302   -0.0005 C.ar    1  LIG1       -0.0113
     22 C           9.4020   -1.4819    0.0014 C.ar    1  LIG1        0.0227
     23 H           8.2276   -3.2836    0.0021 H       1  LIG1        0.0625
     24 C           8.1551    0.5833   -0.0005 C.ar    1  LIG1       -0.0529
     25 C           9.3830   -0.0866    0.0004 C.ar    1  LIG1       -0.0503
     26 H           8.1299    1.6700   -0.0009 H       1  LIG1        0.0624
     27 H           5.8778   -2.2607   -0.0001 H       1  LIG1        0.0624
     28 H          10.4957    0.5856    0.0006 H       1  LIG1        0.0625
     29 C          10.5347   -2.1199    0.0025 C.ar    1  LIG1        0.2033
     30 N          11.6626   -1.3580    0.0030 N.ar    1  LIG1       -0.1258
     31 C          12.8834   -3.4429    0.0047 C.ar    1  LIG1        0.1605
     32 N          10.4677   -3.4794    0.0030 N.ar    1  LIG1       -0.1258
     33 N          12.8297   -2.0355    0.0041 N.ar    1  LIG1       -0.1339
     34 N          11.6520   -4.1264    0.0042 N.ar    1  LIG1       -0.1339
     35 H          14.0160   -4.0809    0.0058 H       1  LIG1        0.1085
@<TRIPOS>BOND
     1    11     7    1
     2    26    24    1
     3     7     6   ar
     4     7     4   ar
     5    17    13    1
     6    16    12   ar
     7    16    15   ar
     8    12    13   ar
     9    12     4    1
    10    21    24   ar
    11    21    15    1
    12    21    19   ar
    13    24    25   ar
    14    13    14   ar
    15     6     8    1
    16     6     3   ar
    17     4     2   ar
    18    15    14   ar
    19    27    19    1
    20    19    20   ar
    21    14    18    1
    22     1     3   ar
    23     1     2   ar
    24     1    10    1
    25     3     9    1
    26     2     5    1
    27    25    28    1
    28    25    22   ar
    29    20    22   ar
    30    20    23    1
    31    22    29    1
    32    29    30   ar
    33    29    32   ar
    34    30    33   ar
    35    32    34   ar
    36    33    31   ar
    37    34    31   ar
    38    31    35    1
