@<TRIPOS>MOLECULE
mol_data/noopt/geoms/mol2/45-5-.out
 26 28 0 0 0
SMALL
GASTEIGER

@<TRIPOS>ATOM
      1 C           0.0509    0.0309    0.0002 C.ar    1  LIG1       -0.0612
      2 C           1.4592    0.0309    0.0002 C.ar    1  LIG1       -0.0535
      3 C          -0.6045    1.2792    0.0002 C.ar    1  LIG1       -0.0617
      4 C           2.1849    1.2200   -0.0004 C.ar    1  LIG1       -0.0113
      5 H           1.9850   -0.9213    0.0004 H       1  LIG1        0.0624
      6 C           0.1195    2.4666   -0.0004 C.ar    1  LIG1       -0.0612
      7 C           1.5181    2.4458   -0.0008 C.ar    1  LIG1       -0.0535
      8 H          -0.4090    3.4165   -0.0003 H       1  LIG1        0.0618
      9 H          -1.9035    1.3287    0.0016 H       1  LIG1        0.0618
     10 H          -0.5708   -1.1108    0.0005 H       1  LIG1        0.0618
     11 H           2.1896    3.5590   -0.0012 H       1  LIG1        0.0624
     12 C           3.4844    1.1831   -0.0005 C.ar    1  LIG1        0.0199
     13 C           4.3190    2.2786   -0.0004 C.ar    1  LIG1       -0.0463
     14 C           5.6972    1.8890    0.0002 C.ar    1  LIG1       -0.0458
     15 C           5.8349    0.5188   -0.0003 C.ar    1  LIG1        0.0265
     16 S           4.3490   -0.2482   -0.0006 S.2     1  LIG1       -0.0877
     17 H           3.9317    3.5195   -0.0007 H       1  LIG1        0.0629
     18 H           6.6769    2.7436    0.0011 H       1  LIG1        0.0629
     19 C           6.9614   -0.1302   -0.0005 C.ar    1  LIG1        0.0259
     20 C           8.2158    0.4382   -0.0005 C.ar    1  LIG1       -0.0464
     21 C           9.2442   -0.5585   -0.0000 C.ar    1  LIG1       -0.0541
     22 C           8.7154   -1.8301   -0.0005 C.ar    1  LIG1       -0.0237
     23 S           7.0435   -1.8004   -0.0007 S.2     1  LIG1       -0.0961
     24 H           9.3992   -2.9357   -0.0008 H       1  LIG1        0.0693
     25 H           8.4635    1.7144   -0.0007 H       1  LIG1        0.0629
     26 H          10.5120   -0.2710    0.0008 H       1  LIG1        0.0623
@<TRIPOS>BOND
     1    11     7    1
     2    24    22    1
     3     7     6   ar
     4     7     4   ar
     5    23    19   ar
     6    23    22   ar
     7    25    20    1
     8    17    13    1
     9    16    12   ar
    10    16    15   ar
    11    12    13   ar
    12    12     4    1
    13    20    19   ar
    14    20    21   ar
    15    19    15    1
    16    22    21   ar
    17    13    14   ar
    18     6     8    1
    19     6     3   ar
    20     4     2   ar
    21    15    14   ar
    22    21    26    1
    23    14    18    1
    24     1     3   ar
    25     1     2   ar
    26     1    10    1
    27     3     9    1
    28     2     5    1
