@<TRIPOS>MOLECULE
mol_data/noopt/geoms/mol2/45-5.out
 26 28 0 0 0
SMALL
GASTEIGER

@<TRIPOS>ATOM
      1 C           0.0509    0.0309    0.0002 C.ar    1  LIG1       -0.0612
      2 C           1.4592    0.0309    0.0002 C.ar    1  LIG1       -0.0535
      3 C          -0.6045    1.2792    0.0002 C.ar    1  LIG1       -0.0617
      4 C           2.1849    1.2200   -0.0004 C.ar    1  LIG1       -0.0113
      5 H           1.9850   -0.9213    0.0004 H       1  LIG1        0.0624
      6 C           0.1195    2.4666   -0.0004 C.ar    1  LIG1       -0.0612
      7 C           1.5181    2.4458   -0.0008 C.ar    1  LIG1       -0.0535
      8 H          -0.4090    3.4165   -0.0003 H       1  LIG1        0.0618
      9 H          -1.9035    1.3287    0.0016 H       1  LIG1        0.0618
     10 H          -0.5708   -1.1108    0.0005 H       1  LIG1        0.0618
     11 H           2.1896    3.5590   -0.0012 H       1  LIG1        0.0624
     12 C           3.4844    1.1831   -0.0005 C.ar    1  LIG1        0.0199
     13 C           4.3190    2.2786   -0.0004 C.ar    1  LIG1       -0.0463
     14 C           5.6972    1.8890    0.0002 C.ar    1  LIG1       -0.0458
     15 C           5.8349    0.5188   -0.0003 C.ar    1  LIG1        0.0265
     16 S           4.3490   -0.2482   -0.0006 S.2     1  LIG1       -0.0877
     17 H           3.9317    3.5195   -0.0007 H       1  LIG1        0.0629
     18 H           6.6769    2.7436    0.0011 H       1  LIG1        0.0629
     19 C           6.9614   -0.1302   -0.0005 C.ar    1  LIG1        0.0259
     20 C           7.0989   -1.5005   -0.0010 C.ar    1  LIG1       -0.0464
     21 C           8.4770   -1.8902   -0.0019 C.ar    1  LIG1       -0.0541
     22 C           9.3118   -0.7949   -0.0012 C.ar    1  LIG1       -0.0237
     23 S           8.4474    0.6366   -0.0003 S.2     1  LIG1       -0.0961
     24 H          10.6113   -0.8318   -0.0011 H       1  LIG1        0.0693
     25 H           6.1191   -2.3549   -0.0009 H       1  LIG1        0.0629
     26 H           8.8643   -3.1312   -0.0032 H       1  LIG1        0.0623
@<TRIPOS>BOND
     1    26    21    1
     2    21    22   ar
     3    21    20   ar
     4    11     7    1
     5    22    24    1
     6    22    23   ar
     7    20    25    1
     8    20    19   ar
     9     7     6   ar
    10     7     4   ar
    11    17    13    1
    12    16    12   ar
    13    16    15   ar
    14    12    13   ar
    15    12     4    1
    16    19    23   ar
    17    19    15    1
    18    13    14   ar
    19     6     8    1
    20     6     3   ar
    21     4     2   ar
    22    15    14   ar
    23    14    18    1
    24     1     3   ar
    25     1     2   ar
    26     1    10    1
    27     3     9    1
    28     2     5    1
