@<TRIPOS>MOLECULE
mol_data/noopt/geoms/mol2/45-8.out
 25 27 0 0 0
SMALL
GASTEIGER

@<TRIPOS>ATOM
      1 C           0.0509    0.0309    0.0002 C.ar    1  LIG1       -0.0612
      2 C           1.4592    0.0309    0.0002 C.ar    1  LIG1       -0.0535
      3 C          -0.6045    1.2792    0.0002 C.ar    1  LIG1       -0.0617
      4 C           2.1849    1.2200   -0.0004 C.ar    1  LIG1       -0.0113
      5 H           1.9850   -0.9213    0.0004 H       1  LIG1        0.0624
      6 C           0.1195    2.4666   -0.0004 C.ar    1  LIG1       -0.0612
      7 C           1.5181    2.4458   -0.0008 C.ar    1  LIG1       -0.0535
      8 H          -0.4090    3.4165   -0.0003 H       1  LIG1        0.0618
      9 H          -1.9035    1.3287    0.0016 H       1  LIG1        0.0618
     10 H          -0.5708   -1.1108    0.0005 H       1  LIG1        0.0618
     11 H           2.1896    3.5590   -0.0012 H       1  LIG1        0.0624
     12 C           3.4844    1.1831   -0.0005 C.ar    1  LIG1        0.0200
     13 C           4.3190    2.2786   -0.0004 C.ar    1  LIG1       -0.0462
     14 C           5.6972    1.8890    0.0002 C.ar    1  LIG1       -0.0432
     15 C           5.8349    0.5188   -0.0003 C.ar    1  LIG1        0.0604
     16 S           4.3490   -0.2482   -0.0006 S.2     1  LIG1       -0.0850
     17 H           3.9317    3.5195   -0.0007 H       1  LIG1        0.0629
     18 H           6.6769    2.7436    0.0011 H       1  LIG1        0.0630
     19 C           6.9614   -0.1302   -0.0005 C.ar    1  LIG1        0.2098
     20 N           6.8812   -1.4889   -0.0006 N.ar    1  LIG1       -0.1253
     21 C           9.2972   -1.4757   -0.0010 C.ar    1  LIG1        0.1605
     22 N           8.0966    0.6208   -0.0006 N.ar    1  LIG1       -0.1253
     23 N           8.0592   -2.1473   -0.0008 N.ar    1  LIG1       -0.1339
     24 N           9.2571   -0.0680   -0.0009 N.ar    1  LIG1       -0.1339
     25 H          10.4236   -2.1247   -0.0012 H       1  LIG1        0.1085
@<TRIPOS>BOND
     1    11     7    1
     2    25    21    1
     3    21    24   ar
     4    21    23   ar
     5    24    22   ar
     6    23    20   ar
     7     7     6   ar
     8     7     4   ar
     9    17    13    1
    10    16    12   ar
    11    16    15   ar
    12    22    19   ar
    13    20    19   ar
    14    12    13   ar
    15    12     4    1
    16    19    15    1
    17    13    14   ar
    18     6     8    1
    19     6     3   ar
    20     4     2   ar
    21    15    14   ar
    22    14    18    1
    23     1     3   ar
    24     1     2   ar
    25     1    10    1
    26     3     9    1
    27     2     5    1
