@<TRIPOS>MOLECULE
mol_data/noopt/geoms/mol2/45.out
 19 20 0 0 0
SMALL
GASTEIGER

@<TRIPOS>ATOM
      1 C           0.0509    0.0309    0.0002 C.ar    1  LIG1       -0.0612
      2 C           1.4592    0.0309    0.0002 C.ar    1  LIG1       -0.0535
      3 C          -0.6045    1.2792    0.0002 C.ar    1  LIG1       -0.0617
      4 C           2.1849    1.2200   -0.0004 C.ar    1  LIG1       -0.0113
      5 H           1.9850   -0.9213    0.0004 H       1  LIG1        0.0624
      6 C           0.1195    2.4666   -0.0004 C.ar    1  LIG1       -0.0612
      7 C           1.5181    2.4458   -0.0008 C.ar    1  LIG1       -0.0535
      8 H          -0.4090    3.4165   -0.0003 H       1  LIG1        0.0618
      9 H          -1.9035    1.3287    0.0016 H       1  LIG1        0.0618
     10 H          -0.5708   -1.1108    0.0005 H       1  LIG1        0.0618
     11 H           2.1896    3.5590   -0.0012 H       1  LIG1        0.0624
     12 C           3.4844    1.1831   -0.0005 C.ar    1  LIG1        0.0193
     13 C           4.2555    0.0420   -0.0009 C.ar    1  LIG1       -0.0469
     14 C           5.6536    0.3527   -0.0017 C.ar    1  LIG1       -0.0541
     15 C           5.8688    1.7130   -0.0010 C.ar    1  LIG1       -0.0237
     16 S           4.4288    2.5631   -0.0002 S.2     1  LIG1       -0.0967
     17 H           7.0303    2.2970   -0.0008 H       1  LIG1        0.0693
     18 H           3.7984   -1.1749   -0.0009 H       1  LIG1        0.0629
     19 H           6.5832   -0.5560   -0.0029 H       1  LIG1        0.0623
@<TRIPOS>BOND
     1    19    14    1
     2    14    15   ar
     3    14    13   ar
     4    11     7    1
     5    15    17    1
     6    15    16   ar
     7    13    18    1
     8    13    12   ar
     9     7     4   ar
    10     7     6   ar
    11    12     4    1
    12    12    16   ar
    13     4     2   ar
    14     6     8    1
    15     6     3   ar
    16     1     3   ar
    17     1     2   ar
    18     1    10    1
    19     3     9    1
    20     2     5    1
