@<TRIPOS>MOLECULE
mol_data/noopt/geoms/mol2/45124-.out
 36 39 0 0 0
SMALL
GASTEIGER

@<TRIPOS>ATOM
      1 C           0.0509    0.0309    0.0002 C.ar    1  LIG1       -0.0612
      2 C           1.4592    0.0309    0.0002 C.ar    1  LIG1       -0.0535
      3 C          -0.6045    1.2792    0.0002 C.ar    1  LIG1       -0.0617
      4 C           2.1849    1.2200   -0.0004 C.ar    1  LIG1       -0.0113
      5 H           1.9850   -0.9213    0.0004 H       1  LIG1        0.0624
      6 C           0.1195    2.4666   -0.0004 C.ar    1  LIG1       -0.0612
      7 C           1.5181    2.4458   -0.0008 C.ar    1  LIG1       -0.0535
      8 H          -0.4090    3.4165   -0.0003 H       1  LIG1        0.0618
      9 H          -1.9035    1.3287    0.0016 H       1  LIG1        0.0618
     10 H          -0.5708   -1.1108    0.0005 H       1  LIG1        0.0618
     11 H           2.1896    3.5590   -0.0012 H       1  LIG1        0.0624
     12 C           3.4844    1.1831   -0.0005 C.ar    1  LIG1        0.0200
     13 C           4.2555    0.0420   -0.0009 C.ar    1  LIG1       -0.0462
     14 C           5.6536    0.3527   -0.0017 C.ar    1  LIG1       -0.0434
     15 C           5.8688    1.7130   -0.0010 C.ar    1  LIG1        0.0550
     16 S           4.4288    2.5631   -0.0002 S.2     1  LIG1       -0.0852
     17 H           3.7984   -1.1749   -0.0009 H       1  LIG1        0.0629
     18 H           6.5832   -0.5560   -0.0029 H       1  LIG1        0.0630
     19 C           7.0303    2.2970   -0.0008 C.ar    1  LIG1        0.1422
     20 C           8.3434    1.8744   -0.0007 C.ar    1  LIG1       -0.0147
     21 C           9.1633    3.0680   -0.0005 C.ar    1  LIG1       -0.0152
     22 C           8.2963    4.1413   -0.0006 C.ar    1  LIG1        0.1357
     23 O           6.9755    3.6915   -0.0009 O.2     1  LIG1       -0.4543
     24 H           8.7859    0.6520   -0.0006 H       1  LIG1        0.0656
     25 H          10.4631    3.0944   -0.0003 H       1  LIG1        0.0656
     26 C           7.2763    6.2540   -0.0012 C.ar    1  LIG1       -0.0511
     27 C           7.4678    7.6492   -0.0026 C.ar    1  LIG1       -0.0611
     28 C           8.4239    5.4350   -0.0005 C.ar    1  LIG1        0.0173
     29 C           8.7445    8.2065   -0.0027 C.ar    1  LIG1       -0.0617
     30 H           6.5959    8.2996   -0.0034 H       1  LIG1        0.0618
     31 C           9.6987    5.9908   -0.0006 C.ar    1  LIG1       -0.0511
     32 C           9.8682    7.3792   -0.0016 C.ar    1  LIG1       -0.0611
     33 H          10.5679    5.3381   -0.0001 H       1  LIG1        0.0625
     34 H           8.8846    9.4990   -0.0039 H       1  LIG1        0.0618
     35 H           6.0607    5.7932   -0.0009 H       1  LIG1        0.0625
     36 H          11.0624    7.8931   -0.0018 H       1  LIG1        0.0618
@<TRIPOS>BOND
     1    34    29    1
     2    30    27    1
     3    18    14    1
     4    29    27   ar
     5    29    32   ar
     6    27    26   ar
     7    36    32    1
     8    14    15   ar
     9    14    13   ar
    10    32    31   ar
    11    26    35    1
    12    26    28   ar
    13    11     7    1
    14    15    19    1
    15    15    16   ar
    16    13    17    1
    17    13    12   ar
    18    23    19   ar
    19    23    22   ar
    20     7     4   ar
    21     7     6   ar
    22    19    20   ar
    23    20    24    1
    24    20    21   ar
    25    22    28    1
    26    22    21   ar
    27    31    28   ar
    28    31    33    1
    29    12     4    1
    30    12    16   ar
    31    21    25    1
    32     4     2   ar
    33     6     8    1
    34     6     3   ar
    35     2     1   ar
    36     2     5    1
    37     3     1   ar
    38     3     9    1
    39     1    10    1
