@<TRIPOS>MOLECULE
mol_data/noopt/geoms/mol2/4513-13.out
 35 38 0 0 0
SMALL
GASTEIGER

@<TRIPOS>ATOM
      1 C           0.0509    0.0309    0.0002 C.ar    1  LIG1       -0.0612
      2 C           1.4592    0.0309    0.0002 C.ar    1  LIG1       -0.0535
      3 C          -0.6045    1.2792    0.0002 C.ar    1  LIG1       -0.0617
      4 C           2.1849    1.2200   -0.0004 C.ar    1  LIG1       -0.0113
      5 H           1.9850   -0.9213    0.0004 H       1  LIG1        0.0624
      6 C           0.1195    2.4666   -0.0004 C.ar    1  LIG1       -0.0612
      7 C           1.5181    2.4458   -0.0008 C.ar    1  LIG1       -0.0535
      8 H          -0.4090    3.4165   -0.0003 H       1  LIG1        0.0618
      9 H          -1.9035    1.3287    0.0016 H       1  LIG1        0.0618
     10 H          -0.5708   -1.1108    0.0005 H       1  LIG1        0.0618
     11 H           2.1896    3.5590   -0.0012 H       1  LIG1        0.0624
     12 C           3.4844    1.1831   -0.0005 C.ar    1  LIG1        0.0200
     13 C           4.2555    0.0420   -0.0009 C.ar    1  LIG1       -0.0463
     14 C           5.6536    0.3527   -0.0017 C.ar    1  LIG1       -0.0449
     15 C           5.8688    1.7130   -0.0010 C.ar    1  LIG1        0.0361
     16 S           4.4288    2.5631   -0.0002 S.2     1  LIG1       -0.0868
     17 H           3.7984   -1.1749   -0.0009 H       1  LIG1        0.0629
     18 H           6.5832   -0.5560   -0.0029 H       1  LIG1        0.0630
     19 C           7.0303    2.2970   -0.0008 C.ar    1  LIG1        0.0536
     20 C           7.3535    3.6174   -0.0002 C.ar    1  LIG1       -0.0353
     21 C           8.7827    3.7078   -0.0014 C.ar    1  LIG1       -0.0344
     22 C           9.2699    2.4387   -0.0009 C.ar    1  LIG1        0.0633
     23 N           8.2004    1.5718   -0.0010 N.ar    1  LIG1       -0.3526
     24 H           8.2632    0.5798   -0.0007 H       1  LIG1        0.1660
     25 H           6.5165    4.6121   -0.0001 H       1  LIG1        0.0639
     26 H           9.4877    4.8000   -0.0022 H       1  LIG1        0.0639
     27 C          10.4957    2.0057   -0.0015 C.ar    1  LIG1        0.0629
     28 C          10.9827    0.7365   -0.0022 C.ar    1  LIG1       -0.0350
     29 C          12.4119    0.8269   -0.0014 C.ar    1  LIG1       -0.0438
     30 C          12.7353    2.1473   -0.0020 C.ar    1  LIG1        0.0022
     31 N          11.5651    2.8725   -0.0016 N.ar    1  LIG1       -0.3595
     32 H          11.5024    3.8645   -0.0020 H       1  LIG1        0.1654
     33 H          13.8968    2.7313   -0.0019 H       1  LIG1        0.0807
     34 H          10.2777   -0.3557   -0.0020 H       1  LIG1        0.0639
     35 H          13.2489   -0.1678   -0.0008 H       1  LIG1        0.0633
@<TRIPOS>BOND
     1    18    14    1
     2    26    21    1
     3    28    34    1
     4    28    27   ar
     5    28    29   ar
     6    30    33    1
     7    30    31   ar
     8    30    29   ar
     9    32    31    1
    10    14    15   ar
    11    14    13   ar
    12    31    27   ar
    13    27    22    1
    14    29    35    1
    15    21    22   ar
    16    21    20   ar
    17    11     7    1
    18    23    22   ar
    19    23    19   ar
    20    23    24    1
    21    15    19    1
    22    15    16   ar
    23    13    17    1
    24    13    12   ar
    25     7     6   ar
    26     7     4   ar
    27    19    20   ar
    28    12     4    1
    29    12    16   ar
    30     6     8    1
    31     6     3   ar
    32     4     2   ar
    33    20    25    1
    34     3     1   ar
    35     3     9    1
    36     2     1   ar
    37     2     5    1
    38     1    10    1
