@<TRIPOS>MOLECULE
mol_data/noopt/geoms/mol2/455-.out
 26 28 0 0 0
SMALL
GASTEIGER

@<TRIPOS>ATOM
      1 C           0.0509    0.0309    0.0002 C.ar    1  LIG1       -0.0612
      2 C           1.4592    0.0309    0.0002 C.ar    1  LIG1       -0.0535
      3 C          -0.6045    1.2792    0.0002 C.ar    1  LIG1       -0.0617
      4 C           2.1849    1.2200   -0.0004 C.ar    1  LIG1       -0.0113
      5 H           1.9850   -0.9213    0.0004 H       1  LIG1        0.0624
      6 C           0.1195    2.4666   -0.0004 C.ar    1  LIG1       -0.0612
      7 C           1.5181    2.4458   -0.0008 C.ar    1  LIG1       -0.0535
      8 H          -0.4090    3.4165   -0.0003 H       1  LIG1        0.0618
      9 H          -1.9035    1.3287    0.0016 H       1  LIG1        0.0618
     10 H          -0.5708   -1.1108    0.0005 H       1  LIG1        0.0618
     11 H           2.1896    3.5590   -0.0012 H       1  LIG1        0.0624
     12 C           3.4844    1.1831   -0.0005 C.ar    1  LIG1        0.0199
     13 C           4.2555    0.0420   -0.0009 C.ar    1  LIG1       -0.0463
     14 C           5.6536    0.3527   -0.0017 C.ar    1  LIG1       -0.0458
     15 C           5.8688    1.7130   -0.0010 C.ar    1  LIG1        0.0265
     16 S           4.4288    2.5631   -0.0002 S.2     1  LIG1       -0.0877
     17 H           3.7984   -1.1749   -0.0009 H       1  LIG1        0.0629
     18 H           6.5832   -0.5560   -0.0029 H       1  LIG1        0.0629
     19 C           7.0303    2.2970   -0.0008 C.ar    1  LIG1        0.0259
     20 C           7.2454    3.6573   -0.0006 C.ar    1  LIG1       -0.0464
     21 C           8.6434    3.9682    0.0004 C.ar    1  LIG1       -0.0541
     22 C           9.4146    2.8272   -0.0000 C.ar    1  LIG1       -0.0237
     23 S           8.4704    1.4471   -0.0007 S.2     1  LIG1       -0.0961
     24 H          10.7141    2.7903   -0.0000 H       1  LIG1        0.0693
     25 H           6.3156    4.5659   -0.0009 H       1  LIG1        0.0629
     26 H           9.1004    5.1852    0.0014 H       1  LIG1        0.0623
@<TRIPOS>BOND
     1    18    14    1
     2    14    15   ar
     3    14    13   ar
     4    11     7    1
     5    15    19    1
     6    15    16   ar
     7    13    17    1
     8    13    12   ar
     9    25    20    1
    10     7     6   ar
    11     7     4   ar
    12    19    23   ar
    13    19    20   ar
    14    23    22   ar
    15    20    21   ar
    16    12     4    1
    17    12    16   ar
    18     6     8    1
    19     6     3   ar
    20     4     2   ar
    21    22    24    1
    22    22    21   ar
    23     1     3   ar
    24     1     2   ar
    25     1    10    1
    26     3     9    1
    27     2     5    1
    28    21    26    1
