@<TRIPOS>MOLECULE
mol_data/noopt/geoms/mol2/4554-.out
 36 39 0 0 0
SMALL
GASTEIGER

@<TRIPOS>ATOM
      1 C           0.0509    0.0309    0.0002 C.ar    1  LIG1       -0.0612
      2 C           1.4592    0.0309    0.0002 C.ar    1  LIG1       -0.0535
      3 C          -0.6045    1.2792    0.0002 C.ar    1  LIG1       -0.0617
      4 C           2.1849    1.2200   -0.0004 C.ar    1  LIG1       -0.0113
      5 H           1.9850   -0.9213    0.0004 H       1  LIG1        0.0624
      6 C           0.1195    2.4666   -0.0004 C.ar    1  LIG1       -0.0612
      7 C           1.5181    2.4458   -0.0008 C.ar    1  LIG1       -0.0535
      8 H          -0.4090    3.4165   -0.0003 H       1  LIG1        0.0618
      9 H          -1.9035    1.3287    0.0016 H       1  LIG1        0.0618
     10 H          -0.5708   -1.1108    0.0005 H       1  LIG1        0.0618
     11 H           2.1896    3.5590   -0.0012 H       1  LIG1        0.0624
     12 C           3.4844    1.1831   -0.0005 C.ar    1  LIG1        0.0199
     13 C           4.2555    0.0420   -0.0009 C.ar    1  LIG1       -0.0463
     14 C           5.6536    0.3527   -0.0017 C.ar    1  LIG1       -0.0458
     15 C           5.8688    1.7130   -0.0010 C.ar    1  LIG1        0.0265
     16 S           4.4288    2.5631   -0.0002 S.2     1  LIG1       -0.0877
     17 H           3.7984   -1.1749   -0.0009 H       1  LIG1        0.0629
     18 H           6.5832   -0.5560   -0.0029 H       1  LIG1        0.0629
     19 C           7.0303    2.2970   -0.0008 C.ar    1  LIG1        0.0265
     20 C           8.2504    1.6583   -0.0010 C.ar    1  LIG1       -0.0458
     21 C           9.3338    2.5950   -0.0015 C.ar    1  LIG1       -0.0463
     22 C           8.8780    3.8946   -0.0008 C.ar    1  LIG1        0.0199
     23 S           7.2071    3.9598   -0.0003 S.2     1  LIG1       -0.0877
     24 H           8.4253    0.3701   -0.0011 H       1  LIG1        0.0629
     25 H          10.5832    2.2361   -0.0025 H       1  LIG1        0.0629
     26 C           9.0246    6.2361   -0.0008 C.ar    1  LIG1       -0.0535
     27 C           9.8755    7.3583   -0.0019 C.ar    1  LIG1       -0.0612
     28 C           9.6233    4.9596   -0.0003 C.ar    1  LIG1       -0.0113
     29 C          11.2614    7.2181   -0.0018 C.ar    1  LIG1       -0.0617
     30 H           9.4344    8.3526   -0.0025 H       1  LIG1        0.0618
     31 C          11.0069    4.8191   -0.0002 C.ar    1  LIG1       -0.0535
     32 C          11.8354    5.9462   -0.0009 C.ar    1  LIG1       -0.0612
     33 H          11.4446    3.8241    0.0001 H       1  LIG1        0.0624
     34 H          12.0172    8.2759   -0.0027 H       1  LIG1        0.0618
     35 H           7.7392    6.4304   -0.0007 H       1  LIG1        0.0624
     36 H          13.1281    5.8087   -0.0009 H       1  LIG1        0.0618
@<TRIPOS>BOND
     1    18    14    1
     2    34    29    1
     3    25    21    1
     4    30    27    1
     5    27    29   ar
     6    27    26   ar
     7    29    32   ar
     8    14    15   ar
     9    14    13   ar
    10    21    20   ar
    11    21    22   ar
    12    11     7    1
    13    24    20    1
    14    20    19   ar
    15    15    19    1
    16    15    16   ar
    17    36    32    1
    18    13    17    1
    19    13    12   ar
    20    32    31   ar
    21    26    35    1
    22    26    28   ar
    23     7     6   ar
    24     7     4   ar
    25    19    23   ar
    26    22    28    1
    27    22    23   ar
    28    12     4    1
    29    12    16   ar
    30     6     8    1
    31     6     3   ar
    32     4     2   ar
    33    28    31   ar
    34    31    33    1
    35     2     1   ar
    36     2     5    1
    37     1     3   ar
    38     1    10    1
    39     3     9    1
