@<TRIPOS>MOLECULE
mol_data/noopt/geoms/mol2/4555-.out
 33 36 0 0 0
SMALL
GASTEIGER

@<TRIPOS>ATOM
      1 C           0.0509    0.0309    0.0002 C.ar    1  LIG1       -0.0612
      2 C           1.4592    0.0309    0.0002 C.ar    1  LIG1       -0.0535
      3 C          -0.6045    1.2792    0.0002 C.ar    1  LIG1       -0.0617
      4 C           2.1849    1.2200   -0.0004 C.ar    1  LIG1       -0.0113
      5 H           1.9850   -0.9213    0.0004 H       1  LIG1        0.0624
      6 C           0.1195    2.4666   -0.0004 C.ar    1  LIG1       -0.0612
      7 C           1.5181    2.4458   -0.0008 C.ar    1  LIG1       -0.0535
      8 H          -0.4090    3.4165   -0.0003 H       1  LIG1        0.0618
      9 H          -1.9035    1.3287    0.0016 H       1  LIG1        0.0618
     10 H          -0.5708   -1.1108    0.0005 H       1  LIG1        0.0618
     11 H           2.1896    3.5590   -0.0012 H       1  LIG1        0.0624
     12 C           3.4844    1.1831   -0.0005 C.ar    1  LIG1        0.0199
     13 C           4.2555    0.0420   -0.0009 C.ar    1  LIG1       -0.0463
     14 C           5.6536    0.3527   -0.0017 C.ar    1  LIG1       -0.0458
     15 C           5.8688    1.7130   -0.0010 C.ar    1  LIG1        0.0265
     16 S           4.4288    2.5631   -0.0002 S.2     1  LIG1       -0.0877
     17 H           3.7984   -1.1749   -0.0009 H       1  LIG1        0.0629
     18 H           6.5832   -0.5560   -0.0029 H       1  LIG1        0.0629
     19 C           7.0303    2.2970   -0.0008 C.ar    1  LIG1        0.0265
     20 C           8.2504    1.6583   -0.0010 C.ar    1  LIG1       -0.0458
     21 C           9.3338    2.5950   -0.0015 C.ar    1  LIG1       -0.0458
     22 C           8.8780    3.8946   -0.0008 C.ar    1  LIG1        0.0265
     23 S           7.2071    3.9598   -0.0003 S.2     1  LIG1       -0.0872
     24 H           8.4253    0.3701   -0.0011 H       1  LIG1        0.0629
     25 H          10.5832    2.2361   -0.0025 H       1  LIG1        0.0629
     26 C           9.6234    4.9597   -0.0003 C.ar    1  LIG1        0.0259
     27 C           9.1674    6.2592    0.0001 C.ar    1  LIG1       -0.0464
     28 C          10.2506    7.1961    0.0013 C.ar    1  LIG1       -0.0541
     29 C          11.4708    6.5576    0.0009 C.ar    1  LIG1       -0.0237
     30 S          11.2943    4.8947   -0.0001 S.2     1  LIG1       -0.0961
     31 H          12.6323    7.1415    0.0011 H       1  LIG1        0.0693
     32 H           7.9179    6.6181   -0.0003 H       1  LIG1        0.0629
     33 H          10.0756    8.4842    0.0025 H       1  LIG1        0.0623
@<TRIPOS>BOND
     1    18    14    1
     2    25    21    1
     3    14    15   ar
     4    14    13   ar
     5    21    20   ar
     6    21    22   ar
     7    11     7    1
     8    24    20    1
     9    20    19   ar
    10    15    19    1
    11    15    16   ar
    12    13    17    1
    13    13    12   ar
    14     7     6   ar
    15     7     4   ar
    16    19    23   ar
    17    22    26    1
    18    22    23   ar
    19    12     4    1
    20    12    16   ar
    21     6     8    1
    22     6     3   ar
    23     4     2   ar
    24    32    27    1
    25    26    30   ar
    26    26    27   ar
    27    30    29   ar
    28    27    28   ar
    29     1     3   ar
    30     1     2   ar
    31     1    10    1
    32     3     9    1
    33     2     5    1
    34    29    31    1
    35    29    28   ar
    36    28    33    1
