@<TRIPOS>MOLECULE
mol_data/noopt/geoms/mol2/458-.out
 25 27 0 0 0
SMALL
GASTEIGER

@<TRIPOS>ATOM
      1 C           0.0509    0.0309    0.0002 C.ar    1  LIG1       -0.0612
      2 C           1.4592    0.0309    0.0002 C.ar    1  LIG1       -0.0535
      3 C          -0.6045    1.2792    0.0002 C.ar    1  LIG1       -0.0617
      4 C           2.1849    1.2200   -0.0004 C.ar    1  LIG1       -0.0113
      5 H           1.9850   -0.9213    0.0004 H       1  LIG1        0.0624
      6 C           0.1195    2.4666   -0.0004 C.ar    1  LIG1       -0.0612
      7 C           1.5181    2.4458   -0.0008 C.ar    1  LIG1       -0.0535
      8 H          -0.4090    3.4165   -0.0003 H       1  LIG1        0.0618
      9 H          -1.9035    1.3287    0.0016 H       1  LIG1        0.0618
     10 H          -0.5708   -1.1108    0.0005 H       1  LIG1        0.0618
     11 H           2.1896    3.5590   -0.0012 H       1  LIG1        0.0624
     12 C           3.4844    1.1831   -0.0005 C.ar    1  LIG1        0.0200
     13 C           4.2555    0.0420   -0.0009 C.ar    1  LIG1       -0.0462
     14 C           5.6536    0.3527   -0.0017 C.ar    1  LIG1       -0.0432
     15 C           5.8688    1.7130   -0.0010 C.ar    1  LIG1        0.0604
     16 S           4.4288    2.5631   -0.0002 S.2     1  LIG1       -0.0850
     17 H           3.7984   -1.1749   -0.0009 H       1  LIG1        0.0629
     18 H           6.5832   -0.5560   -0.0029 H       1  LIG1        0.0630
     19 C           7.0303    2.2970   -0.0008 C.ar    1  LIG1        0.2098
     20 N           7.0274    3.6581   -0.0007 N.ar    1  LIG1       -0.1253
     21 C           9.4387    3.5078   -0.0004 C.ar    1  LIG1        0.1605
     22 N           8.1211    1.4828   -0.0007 N.ar    1  LIG1       -0.1253
     23 N           8.2408    4.2486   -0.0005 N.ar    1  LIG1       -0.1339
     24 N           9.3188    2.1047   -0.0004 N.ar    1  LIG1       -0.1339
     25 H          10.6002    4.0918   -0.0002 H       1  LIG1        0.1085
@<TRIPOS>BOND
     1    18    14    1
     2    14    15   ar
     3    14    13   ar
     4    11     7    1
     5    15    19    1
     6    15    16   ar
     7    13    17    1
     8    13    12   ar
     9     7     6   ar
    10     7     4   ar
    11    19    20   ar
    12    19    22   ar
    13    20    23   ar
    14    22    24   ar
    15    23    21   ar
    16    12     4    1
    17    12    16   ar
    18    24    21   ar
    19    21    25    1
    20     6     8    1
    21     6     3   ar
    22     4     2   ar
    23     3     1   ar
    24     3     9    1
    25     2     1   ar
    26     2     5    1
    27     1    10    1
