@<TRIPOS>MOLECULE
mol_data/noopt/geoms/mol2/48-.out
 18 19 0 0 0
SMALL
GASTEIGER

@<TRIPOS>ATOM
      1 C           0.0509    0.0309    0.0002 C.ar    1  LIG1       -0.0611
      2 C           1.4592    0.0309    0.0002 C.ar    1  LIG1       -0.0509
      3 C          -0.6045    1.2792    0.0002 C.ar    1  LIG1       -0.0617
      4 C           2.1849    1.2200   -0.0004 C.ar    1  LIG1        0.0226
      5 H           1.9850   -0.9213    0.0004 H       1  LIG1        0.0625
      6 C           0.1195    2.4666   -0.0004 C.ar    1  LIG1       -0.0611
      7 C           1.5181    2.4458   -0.0008 C.ar    1  LIG1       -0.0509
      8 H          -0.4090    3.4165   -0.0003 H       1  LIG1        0.0618
      9 H          -1.9035    1.3287    0.0016 H       1  LIG1        0.0618
     10 H          -0.5708   -1.1108    0.0005 H       1  LIG1        0.0618
     11 H           2.1896    3.5590   -0.0012 H       1  LIG1        0.0625
     12 C           3.4844    1.1831   -0.0005 C.ar    1  LIG1        0.2033
     13 N           4.1275    2.3827   -0.0005 N.ar    1  LIG1       -0.1258
     14 C           6.1790    1.1065   -0.0007 C.ar    1  LIG1        0.1605
     15 N           4.0584   -0.0511   -0.0005 N.ar    1  LIG1       -0.1258
     16 N           5.4759    2.3268   -0.0007 N.ar    1  LIG1       -0.1339
     17 N           5.4078   -0.0719   -0.0006 N.ar    1  LIG1       -0.1339
     18 H           7.4784    1.0696   -0.0008 H       1  LIG1        0.1085
@<TRIPOS>BOND
     1    11     7    1
     2    18    14    1
     3     7     4   ar
     4     7     6   ar
     5    14    16   ar
     6    14    17   ar
     7    16    13   ar
     8    17    15   ar
     9    15    12   ar
    10    13    12   ar
    11    12     4    1
    12     4     2   ar
    13     6     8    1
    14     6     3   ar
    15     1     3   ar
    16     1     2   ar
    17     1    10    1
    18     3     9    1
    19     2     5    1
