@<TRIPOS>MOLECULE
mol_data/noopt/geoms/mol2/48-1212-.out
 32 35 0 0 0
SMALL
GASTEIGER

@<TRIPOS>ATOM
      1 C           0.0509    0.0309    0.0002 C.ar    1  LIG1       -0.0611
      2 C           1.4592    0.0309    0.0002 C.ar    1  LIG1       -0.0509
      3 C          -0.6045    1.2792    0.0002 C.ar    1  LIG1       -0.0617
      4 C           2.1849    1.2200   -0.0004 C.ar    1  LIG1        0.0226
      5 H           1.9850   -0.9213    0.0004 H       1  LIG1        0.0625
      6 C           0.1195    2.4666   -0.0004 C.ar    1  LIG1       -0.0611
      7 C           1.5181    2.4458   -0.0008 C.ar    1  LIG1       -0.0509
      8 H          -0.4090    3.4165   -0.0003 H       1  LIG1        0.0618
      9 H          -1.9035    1.3287    0.0016 H       1  LIG1        0.0618
     10 H          -0.5708   -1.1108    0.0005 H       1  LIG1        0.0618
     11 H           2.1896    3.5590   -0.0012 H       1  LIG1        0.0625
     12 C           3.4844    1.1831   -0.0005 C.ar    1  LIG1        0.2034
     13 N           4.1275    2.3827   -0.0005 N.ar    1  LIG1       -0.1251
     14 C           6.1790    1.1065   -0.0007 C.ar    1  LIG1        0.2381
     15 N           4.0584   -0.0511   -0.0005 N.ar    1  LIG1       -0.1251
     16 N           5.4759    2.3268   -0.0007 N.ar    1  LIG1       -0.1220
     17 N           5.4078   -0.0719   -0.0006 N.ar    1  LIG1       -0.1220
     18 C           7.4784    1.0696   -0.0008 C.ar    1  LIG1        0.1761
     19 C           8.4339    0.0746   -0.0009 C.ar    1  LIG1       -0.0119
     20 C           9.7219    0.7364   -0.0010 C.ar    1  LIG1       -0.0121
     21 C           9.4679    2.0925   -0.0011 C.ar    1  LIG1        0.1707
     22 O           8.0918    2.3232   -0.0011 O.2     1  LIG1       -0.4485
     23 H           8.2436   -1.2114   -0.0008 H       1  LIG1        0.0657
     24 H          10.8786    0.1431   -0.0011 H       1  LIG1        0.0657
     25 C          10.1939    3.1709   -0.0011 C.ar    1  LIG1        0.1697
     26 C           9.9406    4.5270   -0.0011 C.ar    1  LIG1       -0.0128
     27 C          11.2282    5.1895   -0.0012 C.ar    1  LIG1       -0.0232
     28 C          12.1834    4.1938   -0.0011 C.ar    1  LIG1        0.0927
     29 O          11.5703    2.9404   -0.0010 O.2     1  LIG1       -0.4598
     30 H          13.4829    4.1569   -0.0012 H       1  LIG1        0.1029
     31 H           8.7839    5.1203   -0.0012 H       1  LIG1        0.0656
     32 H          11.4186    6.4755   -0.0012 H       1  LIG1        0.0649
@<TRIPOS>BOND
     1    32    27    1
     2    11     7    1
     3    27    26   ar
     4    27    28   ar
     5    31    26    1
     6    30    28    1
     7    26    25   ar
     8    28    29   ar
     9    25    21    1
    10    25    29   ar
    11    24    20    1
    12    21    22   ar
    13    21    20   ar
    14    22    18   ar
    15    20    19   ar
    16    19    18   ar
    17    19    23    1
    18    18    14    1
    19     7     6   ar
    20     7     4   ar
    21    14    16   ar
    22    14    17   ar
    23    16    13   ar
    24    17    15   ar
    25    15    12   ar
    26    13    12   ar
    27    12     4    1
    28     6     8    1
    29     6     3   ar
    30     4     2   ar
    31     1     3   ar
    32     1     2   ar
    33     1    10    1
    34     3     9    1
    35     2     5    1
