@<TRIPOS>MOLECULE
mol_data/noopt/geoms/mol2/48-4.out
 28 30 0 0 0
SMALL
GASTEIGER

@<TRIPOS>ATOM
      1 C           0.0509    0.0309    0.0002 C.ar    1  LIG1       -0.0611
      2 C           1.4592    0.0309    0.0002 C.ar    1  LIG1       -0.0509
      3 C          -0.6045    1.2792    0.0002 C.ar    1  LIG1       -0.0617
      4 C           2.1849    1.2200   -0.0004 C.ar    1  LIG1        0.0226
      5 H           1.9850   -0.9213    0.0004 H       1  LIG1        0.0625
      6 C           0.1195    2.4666   -0.0004 C.ar    1  LIG1       -0.0611
      7 C           1.5181    2.4458   -0.0008 C.ar    1  LIG1       -0.0509
      8 H          -0.4090    3.4165   -0.0003 H       1  LIG1        0.0618
      9 H          -1.9035    1.3287    0.0016 H       1  LIG1        0.0618
     10 H          -0.5708   -1.1108    0.0005 H       1  LIG1        0.0618
     11 H           2.1896    3.5590   -0.0012 H       1  LIG1        0.0625
     12 C           3.4844    1.1831   -0.0005 C.ar    1  LIG1        0.2034
     13 N           4.1275    2.3827   -0.0005 N.ar    1  LIG1       -0.1252
     14 C           6.1790    1.1065   -0.0007 C.ar    1  LIG1        0.2034
     15 N           4.0584   -0.0511   -0.0005 N.ar    1  LIG1       -0.1252
     16 N           5.4759    2.3268   -0.0007 N.ar    1  LIG1       -0.1252
     17 N           5.4078   -0.0719   -0.0006 N.ar    1  LIG1       -0.1252
     18 C           8.1459   -0.1723   -0.0001 C.ar    1  LIG1       -0.0509
     19 C           9.5541   -0.1586    0.0013 C.ar    1  LIG1       -0.0611
     20 C           7.4784    1.0696   -0.0008 C.ar    1  LIG1        0.0226
     21 C          10.2682    1.0374    0.0014 C.ar    1  LIG1       -0.0617
     22 H          10.0891   -1.1057    0.0021 H       1  LIG1        0.0618
     23 C           8.1908    2.2640   -0.0007 C.ar    1  LIG1       -0.0509
     24 C           9.5896    2.2567    0.0003 C.ar    1  LIG1       -0.0611
     25 H           7.6531    3.2087   -0.0012 H       1  LIG1        0.0625
     26 H          11.5680    1.0132    0.0026 H       1  LIG1        0.0618
     27 H           7.5352   -1.3200   -0.0004 H       1  LIG1        0.0625
     28 H          10.2502    3.3763    0.0005 H       1  LIG1        0.0618
@<TRIPOS>BOND
     1    11     7    1
     2    25    23    1
     3    20    23   ar
     4    20    14    1
     5    20    18   ar
     6     7     6   ar
     7     7     4   ar
     8    23    24   ar
     9    14    16   ar
    10    14    17   ar
    11    16    13   ar
    12    17    15   ar
    13    13    12   ar
    14    15    12   ar
    15    12     4    1
    16     6     8    1
    17     6     3   ar
    18     4     2   ar
    19    27    18    1
    20    18    19   ar
    21     1     3   ar
    22     1     2   ar
    23     1    10    1
    24     3     9    1
    25     2     5    1
    26    24    28    1
    27    24    21   ar
    28    19    21   ar
    29    19    22    1
    30    21    26    1
