@<TRIPOS>MOLECULE
mol_data/noopt/geoms/mol2/48-5-8-.out
 31 34 0 0 0
SMALL
GASTEIGER

@<TRIPOS>ATOM
      1 C           0.0509    0.0309    0.0002 C.ar    1  LIG1       -0.0611
      2 C           1.4592    0.0309    0.0002 C.ar    1  LIG1       -0.0509
      3 C          -0.6045    1.2792    0.0002 C.ar    1  LIG1       -0.0617
      4 C           2.1849    1.2200   -0.0004 C.ar    1  LIG1        0.0226
      5 H           1.9850   -0.9213    0.0004 H       1  LIG1        0.0625
      6 C           0.1195    2.4666   -0.0004 C.ar    1  LIG1       -0.0611
      7 C           1.5181    2.4458   -0.0008 C.ar    1  LIG1       -0.0509
      8 H          -0.4090    3.4165   -0.0003 H       1  LIG1        0.0618
      9 H          -1.9035    1.3287    0.0016 H       1  LIG1        0.0618
     10 H          -0.5708   -1.1108    0.0005 H       1  LIG1        0.0618
     11 H           2.1896    3.5590   -0.0012 H       1  LIG1        0.0625
     12 C           3.4844    1.1831   -0.0005 C.ar    1  LIG1        0.2034
     13 N           4.1275    2.3827   -0.0005 N.ar    1  LIG1       -0.1252
     14 C           6.1790    1.1065   -0.0007 C.ar    1  LIG1        0.2099
     15 N           4.0584   -0.0511   -0.0005 N.ar    1  LIG1       -0.1252
     16 N           5.4759    2.3268   -0.0007 N.ar    1  LIG1       -0.1247
     17 N           5.4078   -0.0719   -0.0006 N.ar    1  LIG1       -0.1247
     18 C           7.4784    1.0696   -0.0008 C.ar    1  LIG1        0.0605
     19 C           8.3131    2.1650   -0.0007 C.ar    1  LIG1       -0.0431
     20 C           9.6913    1.7755   -0.0001 C.ar    1  LIG1       -0.0431
     21 C           9.8290    0.4052   -0.0006 C.ar    1  LIG1        0.0605
     22 S           8.3431   -0.3617   -0.0010 S.2     1  LIG1       -0.0818
     23 H           7.9257    3.4060   -0.0010 H       1  LIG1        0.0630
     24 H          10.6710    2.6300    0.0007 H       1  LIG1        0.0630
     25 C          10.9554   -0.2437   -0.0008 C.ar    1  LIG1        0.2099
     26 N          12.0906    0.5072   -0.0009 N.ar    1  LIG1       -0.1253
     27 C          13.2912   -1.5894   -0.0013 C.ar    1  LIG1        0.1605
     28 N          10.8753   -1.6025   -0.0009 N.ar    1  LIG1       -0.1253
     29 N          13.2511   -0.1816   -0.0011 N.ar    1  LIG1       -0.1339
     30 N          12.0533   -2.2609   -0.0010 N.ar    1  LIG1       -0.1339
     31 H          14.4176   -2.2384   -0.0015 H       1  LIG1        0.1085
@<TRIPOS>BOND
     1    31    27    1
     2    27    29   ar
     3    27    30   ar
     4    11     7    1
     5    29    26   ar
     6    30    28   ar
     7    23    19    1
     8    22    18   ar
     9    22    21   ar
    10    28    25   ar
    11    26    25   ar
    12    18    19   ar
    13    18    14    1
    14     7     6   ar
    15     7     4   ar
    16    25    21    1
    17    19    20   ar
    18    14    16   ar
    19    14    17   ar
    20    16    13   ar
    21    21    20   ar
    22    17    15   ar
    23    15    12   ar
    24    13    12   ar
    25    12     4    1
    26     6     8    1
    27     6     3   ar
    28     4     2   ar
    29    20    24    1
    30     1     3   ar
    31     1     2   ar
    32     1    10    1
    33     3     9    1
    34     2     5    1
