@<TRIPOS>MOLECULE
mol_data/noopt/geoms/mol2/48-513.out
 33 36 0 0 0
SMALL
GASTEIGER

@<TRIPOS>ATOM
      1 C           0.0509    0.0309    0.0002 C.ar    1  LIG1       -0.0611
      2 C           1.4592    0.0309    0.0002 C.ar    1  LIG1       -0.0509
      3 C          -0.6045    1.2792    0.0002 C.ar    1  LIG1       -0.0617
      4 C           2.1849    1.2200   -0.0004 C.ar    1  LIG1        0.0226
      5 H           1.9850   -0.9213    0.0004 H       1  LIG1        0.0625
      6 C           0.1195    2.4666   -0.0004 C.ar    1  LIG1       -0.0611
      7 C           1.5181    2.4458   -0.0008 C.ar    1  LIG1       -0.0509
      8 H          -0.4090    3.4165   -0.0003 H       1  LIG1        0.0618
      9 H          -1.9035    1.3287    0.0016 H       1  LIG1        0.0618
     10 H          -0.5708   -1.1108    0.0005 H       1  LIG1        0.0618
     11 H           2.1896    3.5590   -0.0012 H       1  LIG1        0.0625
     12 C           3.4844    1.1831   -0.0005 C.ar    1  LIG1        0.2034
     13 N           4.1275    2.3827   -0.0005 N.ar    1  LIG1       -0.1252
     14 C           6.1790    1.1065   -0.0007 C.ar    1  LIG1        0.2099
     15 N           4.0584   -0.0511   -0.0005 N.ar    1  LIG1       -0.1252
     16 N           5.4759    2.3268   -0.0007 N.ar    1  LIG1       -0.1247
     17 N           5.4078   -0.0719   -0.0006 N.ar    1  LIG1       -0.1247
     18 C           7.4784    1.0696   -0.0008 C.ar    1  LIG1        0.0604
     19 C           8.2496   -0.0715   -0.0012 C.ar    1  LIG1       -0.0432
     20 C           9.6476    0.2392   -0.0020 C.ar    1  LIG1       -0.0448
     21 C           9.8629    1.5995   -0.0013 C.ar    1  LIG1        0.0361
     22 S           8.4229    2.4495   -0.0005 S.2     1  LIG1       -0.0836
     23 H           7.7924   -1.2884   -0.0012 H       1  LIG1        0.0630
     24 H          10.5773   -0.6695   -0.0032 H       1  LIG1        0.0630
     25 C          11.0243    2.1835   -0.0011 C.ar    1  LIG1        0.0531
     26 C          12.2770    1.6554   -0.0013 C.ar    1  LIG1       -0.0359
     27 C          13.2019    2.7486    0.0002 C.ar    1  LIG1       -0.0438
     28 C          12.4738    3.8967   -0.0005 C.ar    1  LIG1        0.0022
     29 N          11.1402    3.5552   -0.0008 N.ar    1  LIG1       -0.3603
     30 H          10.3813    4.1973   -0.0014 H       1  LIG1        0.1653
     31 H          12.8573    5.1388    0.0002 H       1  LIG1        0.0807
     32 H          12.5762    0.3903   -0.0013 H       1  LIG1        0.0639
     33 H          14.4991    2.6631    0.0014 H       1  LIG1        0.0633
@<TRIPOS>BOND
     1    24    20    1
     2    20    21   ar
     3    20    19   ar
     4    30    29    1
     5    26    32    1
     6    26    25   ar
     7    26    27   ar
     8    21    25    1
     9    21    22   ar
    10    19    23    1
    11    19    18   ar
    12    11     7    1
    13    25    29   ar
    14    29    28   ar
    15    18    14    1
    16    18    22   ar
    17     7     6   ar
    18     7     4   ar
    19    14    16   ar
    20    14    17   ar
    21    16    13   ar
    22    17    15   ar
    23    13    12   ar
    24    15    12   ar
    25    28    27   ar
    26    28    31    1
    27    12     4    1
    28     6     8    1
    29     6     3   ar
    30     4     2   ar
    31    27    33    1
    32     1     3   ar
    33     1     2   ar
    34     1    10    1
    35     3     9    1
    36     2     5    1
