@<TRIPOS>MOLECULE
mol_data/noopt/geoms/mol2/48-88.out
 30 33 0 0 0
SMALL
GASTEIGER

@<TRIPOS>ATOM
      1 C           0.0509    0.0309    0.0002 C.ar    1  LIG1       -0.0611
      2 C           1.4592    0.0309    0.0002 C.ar    1  LIG1       -0.0509
      3 C          -0.6045    1.2792    0.0002 C.ar    1  LIG1       -0.0617
      4 C           2.1849    1.2200   -0.0004 C.ar    1  LIG1        0.0226
      5 H           1.9850   -0.9213    0.0004 H       1  LIG1        0.0625
      6 C           0.1195    2.4666   -0.0004 C.ar    1  LIG1       -0.0611
      7 C           1.5181    2.4458   -0.0008 C.ar    1  LIG1       -0.0509
      8 H          -0.4090    3.4165   -0.0003 H       1  LIG1        0.0618
      9 H          -1.9035    1.3287    0.0016 H       1  LIG1        0.0618
     10 H          -0.5708   -1.1108    0.0005 H       1  LIG1        0.0618
     11 H           2.1896    3.5590   -0.0012 H       1  LIG1        0.0625
     12 C           3.4844    1.1831   -0.0005 C.ar    1  LIG1        0.2034
     13 N           4.1275    2.3827   -0.0005 N.ar    1  LIG1       -0.1251
     14 C           6.1790    1.1065   -0.0007 C.ar    1  LIG1        0.2435
     15 N           4.0584   -0.0511   -0.0005 N.ar    1  LIG1       -0.1251
     16 N           5.4759    2.3268   -0.0007 N.ar    1  LIG1       -0.1218
     17 N           5.4078   -0.0719   -0.0006 N.ar    1  LIG1       -0.1218
     18 C           7.4784    1.0696   -0.0008 C.ar    1  LIG1        0.2435
     19 N           8.0525   -0.1645   -0.0009 N.ar    1  LIG1       -0.1217
     20 C          10.1730    0.9932   -0.0010 C.ar    1  LIG1        0.2435
     21 N           8.1216    2.2692   -0.0009 N.ar    1  LIG1       -0.1217
     22 N           9.4018   -0.1853   -0.0010 N.ar    1  LIG1       -0.1217
     23 N           9.4699    2.2134   -0.0011 N.ar    1  LIG1       -0.1217
     24 C          11.4725    0.9563   -0.0011 C.ar    1  LIG1        0.2434
     25 N          12.0465   -0.2779   -0.0012 N.ar    1  LIG1       -0.1224
     26 C          14.1671    0.8799   -0.0013 C.ar    1  LIG1        0.1605
     27 N          12.1157    2.1559   -0.0012 N.ar    1  LIG1       -0.1224
     28 N          13.3959   -0.2986   -0.0013 N.ar    1  LIG1       -0.1338
     29 N          13.4640    2.1001   -0.0014 N.ar    1  LIG1       -0.1338
     30 H          15.4666    0.8430   -0.0014 H       1  LIG1        0.1085
@<TRIPOS>BOND
     1    30    26    1
     2    29    26   ar
     3    29    27   ar
     4    26    28   ar
     5    28    25   ar
     6    11     7    1
     7    27    24   ar
     8    25    24   ar
     9    24    20    1
    10    23    20   ar
    11    23    21   ar
    12    20    22   ar
    13    22    19   ar
    14    19    18   ar
    15    21    18   ar
    16    18    14    1
    17     7     6   ar
    18     7     4   ar
    19    14    16   ar
    20    14    17   ar
    21    16    13   ar
    22    17    15   ar
    23    15    12   ar
    24    13    12   ar
    25    12     4    1
    26     6     8    1
    27     6     3   ar
    28     4     2   ar
    29     1     3   ar
    30     1     2   ar
    31     1    10    1
    32     3     9    1
    33     2     5    1
