@<TRIPOS>MOLECULE
mol_data/noopt/geoms/mol2/4813-12-.out
 33 36 0 0 0
SMALL
GASTEIGER

@<TRIPOS>ATOM
      1 C           0.0509    0.0309    0.0002 C.ar    1  LIG1       -0.0611
      2 C           1.4592    0.0309    0.0002 C.ar    1  LIG1       -0.0509
      3 C          -0.6045    1.2792    0.0002 C.ar    1  LIG1       -0.0617
      4 C           2.1849    1.2200   -0.0004 C.ar    1  LIG1        0.0226
      5 H           1.9850   -0.9213    0.0004 H       1  LIG1        0.0625
      6 C           0.1195    2.4666   -0.0004 C.ar    1  LIG1       -0.0611
      7 C           1.5181    2.4458   -0.0008 C.ar    1  LIG1       -0.0509
      8 H          -0.4090    3.4165   -0.0003 H       1  LIG1        0.0618
      9 H          -1.9035    1.3287    0.0016 H       1  LIG1        0.0618
     10 H          -0.5708   -1.1108    0.0005 H       1  LIG1        0.0618
     11 H           2.1896    3.5590   -0.0012 H       1  LIG1        0.0625
     12 C           3.4844    1.1831   -0.0005 C.ar    1  LIG1        0.2034
     13 N           4.0584   -0.0510   -0.0005 N.ar    1  LIG1       -0.1252
     14 C           6.1790    1.1067   -0.0007 C.ar    1  LIG1        0.2194
     15 N           4.1275    2.3828   -0.0005 N.ar    1  LIG1       -0.1252
     16 N           5.4077   -0.0718   -0.0007 N.ar    1  LIG1       -0.1237
     17 N           5.4759    2.3269   -0.0008 N.ar    1  LIG1       -0.1237
     18 C           7.4785    1.0698   -0.0008 C.ar    1  LIG1        0.0880
     19 C           8.3894    2.0788   -0.0004 C.ar    1  LIG1       -0.0325
     20 C           9.6904    1.4804   -0.0019 C.ar    1  LIG1       -0.0327
     21 C           9.5172    0.1321   -0.0014 C.ar    1  LIG1        0.0826
     22 N           8.1645   -0.1237   -0.0012 N.ar    1  LIG1       -0.3492
     23 H           7.7492   -1.0268   -0.0007 H       1  LIG1        0.1661
     24 H           8.1244    3.3515   -0.0003 H       1  LIG1        0.0640
     25 H          10.8292    2.1075   -0.0030 H       1  LIG1        0.0640
     26 C          10.3909   -0.8306   -0.0021 C.ar    1  LIG1        0.1509
     27 C          11.7682   -0.9086   -0.0027 C.ar    1  LIG1       -0.0144
     28 C          12.1039   -2.3173   -0.0034 C.ar    1  LIG1       -0.0233
     29 C          10.9088   -3.0069   -0.0032 C.ar    1  LIG1        0.0926
     30 O           9.8382   -2.1121   -0.0023 O.2     1  LIG1       -0.4615
     31 H          10.5625   -4.2599   -0.0036 H       1  LIG1        0.1029
     32 H          12.6207    0.0728   -0.0026 H       1  LIG1        0.0656
     33 H          13.3071   -2.8094   -0.0041 H       1  LIG1        0.0649
@<TRIPOS>BOND
     1    33    28    1
     2    31    29    1
     3    28    29   ar
     4    28    27   ar
     5    29    30   ar
     6    25    20    1
     7    27    32    1
     8    27    26   ar
     9    30    26   ar
    10    26    21    1
    11    20    21   ar
    12    20    19   ar
    13    21    22   ar
    14    11     7    1
    15    22    18   ar
    16    22    23    1
    17    18    14    1
    18    18    19   ar
    19     7     6   ar
    20     7     4   ar
    21    17    14   ar
    22    17    15   ar
    23    14    16   ar
    24    16    13   ar
    25    15    12   ar
    26    13    12   ar
    27    12     4    1
    28     6     8    1
    29     6     3   ar
    30     4     2   ar
    31    19    24    1
    32     2     1   ar
    33     2     5    1
    34     1     3   ar
    35     1    10    1
    36     3     9    1
