@<TRIPOS>MOLECULE
mol_data/noopt/geoms/mol2/4813-.out
 26 28 0 0 0
SMALL
GASTEIGER

@<TRIPOS>ATOM
      1 C           0.0509    0.0309    0.0002 C.ar    1  LIG1       -0.0611
      2 C           1.4592    0.0309    0.0002 C.ar    1  LIG1       -0.0509
      3 C          -0.6045    1.2792    0.0002 C.ar    1  LIG1       -0.0617
      4 C           2.1849    1.2200   -0.0004 C.ar    1  LIG1        0.0226
      5 H           1.9850   -0.9213    0.0004 H       1  LIG1        0.0625
      6 C           0.1195    2.4666   -0.0004 C.ar    1  LIG1       -0.0611
      7 C           1.5181    2.4458   -0.0008 C.ar    1  LIG1       -0.0509
      8 H          -0.4090    3.4165   -0.0003 H       1  LIG1        0.0618
      9 H          -1.9035    1.3287    0.0016 H       1  LIG1        0.0618
     10 H          -0.5708   -1.1108    0.0005 H       1  LIG1        0.0618
     11 H           2.1896    3.5590   -0.0012 H       1  LIG1        0.0625
     12 C           3.4844    1.1831   -0.0005 C.ar    1  LIG1        0.2034
     13 N           4.0584   -0.0510   -0.0005 N.ar    1  LIG1       -0.1252
     14 C           6.1790    1.1067   -0.0007 C.ar    1  LIG1        0.2194
     15 N           4.1275    2.3828   -0.0005 N.ar    1  LIG1       -0.1252
     16 N           5.4077   -0.0718   -0.0007 N.ar    1  LIG1       -0.1237
     17 N           5.4759    2.3269   -0.0008 N.ar    1  LIG1       -0.1237
     18 C           7.4785    1.0698   -0.0008 C.ar    1  LIG1        0.0875
     19 C           8.3894    2.0788   -0.0004 C.ar    1  LIG1       -0.0333
     20 C           9.6904    1.4804   -0.0019 C.ar    1  LIG1       -0.0437
     21 C           9.5172    0.1321   -0.0014 C.ar    1  LIG1        0.0023
     22 N           8.1645   -0.1237   -0.0012 N.ar    1  LIG1       -0.3582
     23 H           7.7492   -1.0268   -0.0007 H       1  LIG1        0.1654
     24 H          10.3909   -0.8306   -0.0021 H       1  LIG1        0.0807
     25 H           8.1244    3.3515   -0.0003 H       1  LIG1        0.0640
     26 H          10.8292    2.1075   -0.0030 H       1  LIG1        0.0633
@<TRIPOS>BOND
     1    26    20    1
     2    24    21    1
     3    20    21   ar
     4    20    19   ar
     5    21    22   ar
     6    11     7    1
     7    22    18   ar
     8    22    23    1
     9    18    14    1
    10    18    19   ar
    11     7     6   ar
    12     7     4   ar
    13    17    14   ar
    14    17    15   ar
    15    14    16   ar
    16    16    13   ar
    17    13    12   ar
    18    15    12   ar
    19    12     4    1
    20     6     8    1
    21     6     3   ar
    22     4     2   ar
    23    19    25    1
    24     1     3   ar
    25     1     2   ar
    26     1    10    1
    27     3     9    1
    28     2     5    1
