@<TRIPOS>MOLECULE
mol_data/noopt/geoms/mol2/485.out
 25 27 0 0 0
SMALL
GASTEIGER

@<TRIPOS>ATOM
      1 C           0.0509    0.0309    0.0002 C.ar    1  LIG1       -0.0611
      2 C           1.4592    0.0309    0.0002 C.ar    1  LIG1       -0.0509
      3 C          -0.6045    1.2792    0.0002 C.ar    1  LIG1       -0.0617
      4 C           2.1849    1.2200   -0.0004 C.ar    1  LIG1        0.0226
      5 H           1.9850   -0.9213    0.0004 H       1  LIG1        0.0625
      6 C           0.1195    2.4666   -0.0004 C.ar    1  LIG1       -0.0611
      7 C           1.5181    2.4458   -0.0008 C.ar    1  LIG1       -0.0509
      8 H          -0.4090    3.4165   -0.0003 H       1  LIG1        0.0618
      9 H          -1.9035    1.3287    0.0016 H       1  LIG1        0.0618
     10 H          -0.5708   -1.1108    0.0005 H       1  LIG1        0.0618
     11 H           2.1896    3.5590   -0.0012 H       1  LIG1        0.0625
     12 C           3.4844    1.1831   -0.0005 C.ar    1  LIG1        0.2034
     13 N           4.0584   -0.0510   -0.0005 N.ar    1  LIG1       -0.1252
     14 C           6.1790    1.1067   -0.0007 C.ar    1  LIG1        0.2099
     15 N           4.1275    2.3828   -0.0005 N.ar    1  LIG1       -0.1252
     16 N           5.4077   -0.0718   -0.0007 N.ar    1  LIG1       -0.1247
     17 N           5.4759    2.3269   -0.0008 N.ar    1  LIG1       -0.1247
     18 C           7.4784    1.0698   -0.0008 C.ar    1  LIG1        0.0598
     19 C           8.2496   -0.0713   -0.0012 C.ar    1  LIG1       -0.0438
     20 C           9.6476    0.2394   -0.0020 C.ar    1  LIG1       -0.0540
     21 C           9.8629    1.5997   -0.0013 C.ar    1  LIG1       -0.0236
     22 S           8.4229    2.4497   -0.0005 S.2     1  LIG1       -0.0934
     23 H          11.0243    2.1837   -0.0011 H       1  LIG1        0.0693
     24 H           7.7924   -1.2882   -0.0012 H       1  LIG1        0.0630
     25 H          10.5773   -0.6693   -0.0032 H       1  LIG1        0.0623
@<TRIPOS>BOND
     1    25    20    1
     2    20    21   ar
     3    20    19   ar
     4    21    23    1
     5    21    22   ar
     6    19    24    1
     7    19    18   ar
     8    11     7    1
     9    18    14    1
    10    18    22   ar
    11     7     6   ar
    12     7     4   ar
    13    17    14   ar
    14    17    15   ar
    15    14    16   ar
    16    16    13   ar
    17    13    12   ar
    18    15    12   ar
    19    12     4    1
    20     6     8    1
    21     6     3   ar
    22     4     2   ar
    23     1     3   ar
    24     1     2   ar
    25     1    10    1
    26     3     9    1
    27     2     5    1
