@<TRIPOS>MOLECULE
mol_data/noopt/geoms/mol2/488-12-.out
 31 34 0 0 0
SMALL
GASTEIGER

@<TRIPOS>ATOM
      1 C           0.0509    0.0309    0.0002 C.ar    1  LIG1       -0.0611
      2 C           1.4592    0.0309    0.0002 C.ar    1  LIG1       -0.0509
      3 C          -0.6045    1.2792    0.0002 C.ar    1  LIG1       -0.0617
      4 C           2.1849    1.2200   -0.0004 C.ar    1  LIG1        0.0226
      5 H           1.9850   -0.9213    0.0004 H       1  LIG1        0.0625
      6 C           0.1195    2.4666   -0.0004 C.ar    1  LIG1       -0.0611
      7 C           1.5181    2.4458   -0.0008 C.ar    1  LIG1       -0.0509
      8 H          -0.4090    3.4165   -0.0003 H       1  LIG1        0.0618
      9 H          -1.9035    1.3287    0.0016 H       1  LIG1        0.0618
     10 H          -0.5708   -1.1108    0.0005 H       1  LIG1        0.0618
     11 H           2.1896    3.5590   -0.0012 H       1  LIG1        0.0625
     12 C           3.4844    1.1831   -0.0005 C.ar    1  LIG1        0.2034
     13 N           4.0584   -0.0510   -0.0005 N.ar    1  LIG1       -0.1251
     14 C           6.1790    1.1067   -0.0007 C.ar    1  LIG1        0.2435
     15 N           4.1275    2.3828   -0.0005 N.ar    1  LIG1       -0.1251
     16 N           5.4077   -0.0718   -0.0007 N.ar    1  LIG1       -0.1218
     17 N           5.4759    2.3269   -0.0008 N.ar    1  LIG1       -0.1218
     18 C           7.4784    1.0698   -0.0008 C.ar    1  LIG1        0.2435
     19 N           8.1216    2.2694   -0.0009 N.ar    1  LIG1       -0.1217
     20 C          10.1730    0.9932   -0.0010 C.ar    1  LIG1        0.2381
     21 N           8.0525   -0.1644   -0.0009 N.ar    1  LIG1       -0.1217
     22 N           9.4699    2.2135   -0.0010 N.ar    1  LIG1       -0.1219
     23 N           9.4018   -0.1852   -0.0009 N.ar    1  LIG1       -0.1219
     24 C          11.4725    0.9563   -0.0011 C.ar    1  LIG1        0.1751
     25 C          12.4829    1.8954   -0.0012 C.ar    1  LIG1       -0.0126
     26 C          13.7313    1.1616   -0.0013 C.ar    1  LIG1       -0.0232
     27 C          13.4007   -0.1779   -0.0012 C.ar    1  LIG1        0.0927
     28 O          12.0137   -0.3301   -0.0010 O.2     1  LIG1       -0.4597
     29 H          14.0644   -1.2958   -0.0013 H       1  LIG1        0.1029
     30 H          12.3658    3.1902   -0.0012 H       1  LIG1        0.0656
     31 H          14.9198    1.6884   -0.0014 H       1  LIG1        0.0649
@<TRIPOS>BOND
     1    31    26    1
     2    26    27   ar
     3    26    25   ar
     4    29    27    1
     5    30    25    1
     6    11     7    1
     7    27    28   ar
     8    25    24   ar
     9    24    20    1
    10    24    28   ar
    11    20    22   ar
    12    20    23   ar
    13    22    19   ar
    14    23    21   ar
    15    19    18   ar
    16    21    18   ar
    17    18    14    1
    18     7     6   ar
    19     7     4   ar
    20    17    14   ar
    21    17    15   ar
    22    14    16   ar
    23    16    13   ar
    24    15    12   ar
    25    13    12   ar
    26    12     4    1
    27     6     8    1
    28     6     3   ar
    29     4     2   ar
    30     1     3   ar
    31     1     2   ar
    32     1    10    1
    33     3     9    1
    34     2     5    1
