@<TRIPOS>MOLECULE
mol_data/noopt/geoms/mol2/488.out
 24 26 0 0 0
SMALL
GASTEIGER

@<TRIPOS>ATOM
      1 C           0.0509    0.0309    0.0002 C.ar    1  LIG1       -0.0611
      2 C           1.4592    0.0309    0.0002 C.ar    1  LIG1       -0.0509
      3 C          -0.6045    1.2792    0.0002 C.ar    1  LIG1       -0.0617
      4 C           2.1849    1.2200   -0.0004 C.ar    1  LIG1        0.0226
      5 H           1.9850   -0.9213    0.0004 H       1  LIG1        0.0625
      6 C           0.1195    2.4666   -0.0004 C.ar    1  LIG1       -0.0611
      7 C           1.5181    2.4458   -0.0008 C.ar    1  LIG1       -0.0509
      8 H          -0.4090    3.4165   -0.0003 H       1  LIG1        0.0618
      9 H          -1.9035    1.3287    0.0016 H       1  LIG1        0.0618
     10 H          -0.5708   -1.1108    0.0005 H       1  LIG1        0.0618
     11 H           2.1896    3.5590   -0.0012 H       1  LIG1        0.0625
     12 C           3.4844    1.1831   -0.0005 C.ar    1  LIG1        0.2034
     13 N           4.0584   -0.0510   -0.0005 N.ar    1  LIG1       -0.1251
     14 C           6.1790    1.1067   -0.0007 C.ar    1  LIG1        0.2435
     15 N           4.1275    2.3828   -0.0005 N.ar    1  LIG1       -0.1251
     16 N           5.4077   -0.0718   -0.0007 N.ar    1  LIG1       -0.1218
     17 N           5.4759    2.3269   -0.0008 N.ar    1  LIG1       -0.1218
     18 C           7.4784    1.0698   -0.0008 C.ar    1  LIG1        0.2434
     19 N           8.0525   -0.1643   -0.0009 N.ar    1  LIG1       -0.1224
     20 C          10.1730    0.9934   -0.0010 C.ar    1  LIG1        0.1605
     21 N           8.1216    2.2694   -0.0009 N.ar    1  LIG1       -0.1224
     22 N           9.4018   -0.1851   -0.0010 N.ar    1  LIG1       -0.1338
     23 N           9.4699    2.2136   -0.0011 N.ar    1  LIG1       -0.1338
     24 H          11.4725    0.9565   -0.0011 H       1  LIG1        0.1085
@<TRIPOS>BOND
     1    11     7    1
     2    24    20    1
     3    23    20   ar
     4    23    21   ar
     5    20    22   ar
     6    22    19   ar
     7    21    18   ar
     8    19    18   ar
     9    18    14    1
    10     7     6   ar
    11     7     4   ar
    12    17    14   ar
    13    17    15   ar
    14    14    16   ar
    15    16    13   ar
    16    13    12   ar
    17    15    12   ar
    18    12     4    1
    19     6     8    1
    20     6     3   ar
    21     4     2   ar
    22     1     3   ar
    23     1     2   ar
    24     1    10    1
    25     3     9    1
    26     2     5    1
