@<TRIPOS>MOLECULE
mol_data/noopt/geoms/mol2/4aa12dl13il-12id-.out
 50 53 0 0 0
SMALL
GASTEIGER

@<TRIPOS>ATOM
      1 C           0.0509    0.0309    0.0002 C.ar    1  LIG1       -0.0611
      2 C           1.4592    0.0309    0.0002 C.ar    1  LIG1       -0.0510
      3 C          -0.6045    1.2792    0.0002 C.ar    1  LIG1       -0.0617
      4 C           2.1849    1.2200   -0.0004 C.ar    1  LIG1        0.0187
      5 H           1.9850   -0.9213    0.0004 H       1  LIG1        0.0625
      6 C           0.1195    2.4666   -0.0004 C.ar    1  LIG1       -0.0611
      7 C           1.5181    2.4458   -0.0008 C.ar    1  LIG1       -0.0510
      8 H          -0.4090    3.4165   -0.0003 H       1  LIG1        0.0618
      9 H          -1.9035    1.3287    0.0016 H       1  LIG1        0.0618
     10 H          -0.5708   -1.1108    0.0005 H       1  LIG1        0.0618
     11 H           2.1896    3.5590   -0.0012 H       1  LIG1        0.0625
     12 C           3.4844    1.1831   -0.0005 C.ar    1  LIG1        0.1568
     13 C           4.4399    0.1881   -0.0006 C.ar    1  LIG1        0.1396
     14 C           5.7279    0.8499   -0.0007 C.ar    1  LIG1        0.1852
     15 C           5.4738    2.2061   -0.0008 C.ar    1  LIG1        0.1948
     16 O           4.0977    2.4367   -0.0007 O.2     1  LIG1       -0.4482
     17 N           4.0816   -2.2321   -0.0004 N.1     1  LIG1       -0.1906
     18 C           4.2495   -1.0979   -0.0005 C.1     1  LIG1        0.1067
     19 O           6.8846    0.2566   -0.0008 O.3     1  LIG1       -0.4901
     20 C           6.6940   -1.1607   -0.0009 C.3     1  LIG1        0.0790
     21 H           7.6463   -1.6487   -0.0011 H       1  LIG1        0.0660
     22 H           6.1467   -1.4471    0.8729 H       1  LIG1        0.0660
     23 H           6.1464   -1.4469   -0.8744 H       1  LIG1        0.0660
     24 C           6.1999    3.2844   -0.0008 C.ar    1  LIG1        0.0929
     25 C           7.5505    3.4383   -0.0012 C.ar    1  LIG1        0.0203
     26 C           7.8208    4.8446    0.0001 C.ar    1  LIG1        0.1519
     27 C           6.6234    5.4882   -0.0006 C.ar    1  LIG1        0.1253
     28 N           5.6283    4.5368   -0.0007 N.ar    1  LIG1       -0.3461
     29 H           4.6522    4.7244   -0.0012 H       1  LIG1        0.1662
     30 C           8.4317    2.4821   -0.0011 C.3     1  LIG1       -0.0341
     31 H           9.3158    2.8119    0.5033 H       1  LIG1        0.0279
     32 H           8.6735    2.2198   -1.0099 H       1  LIG1        0.0279
     33 H           8.0309    1.6278    0.5033 H       1  LIG1        0.0279
     34 O           8.9934    5.4060    0.0011 O.3     1  LIG1       -0.4926
     35 C          10.0059    4.3962    0.0015 C.3     1  LIG1        0.0789
     36 H          10.9708    4.8587    0.0022 H       1  LIG1        0.0660
     37 H           9.9018    3.7869    0.8749 H       1  LIG1        0.0660
     38 H           9.9029    3.7874   -0.8724 H       1  LIG1        0.0660
     39 C           6.3487    6.7589   -0.0001 C.ar    1  LIG1        0.1586
     40 C           7.0865    7.9244    0.0151 C.ar    1  LIG1        0.0142
     41 C           6.1361    9.0170    0.0049 C.ar    1  LIG1        0.0929
     42 C           4.8801    8.4463   -0.0159 C.ar    1  LIG1        0.1102
     43 O           4.9850    7.0550   -0.0195 O.2     1  LIG1       -0.4598
     44 H           3.6597    8.8937   -0.0324 H       1  LIG1        0.1043
     45 C           8.3808    8.0468    0.0349 C.3     1  LIG1       -0.0348
     46 H           8.6460    8.9494    0.5447 H       1  LIG1        0.0279
     47 H           8.7512    8.0819   -0.9684 H       1  LIG1        0.0279
     48 H           8.8105    7.2099    0.5446 H       1  LIG1        0.0279
     49 N           6.7002   11.3976    0.0219 N.1     1  LIG1       -0.1908
     50 C           6.4359   10.2819    0.0139 C.1     1  LIG1        0.1026
@<TRIPOS>BOND
     1    32    30    1
     2    47    45    1
     3    23    20    1
     4    38    35    1
     5    44    42    1
     6    43    42   ar
     7    43    39   ar
     8    42    41   ar
     9    25    30    1
    10    25    24   ar
    11    25    26   ar
    12    11     7    1
    13    29    28    1
    14    21    20    1
    15    30    33    1
    16    30    31    1
    17    20    19    1
    18    20    22    1
    19    24    15    1
    20    24    28   ar
    21     7     6   ar
    22     7     4   ar
    23    19    14    1
    24    15    16   ar
    25    15    14   ar
    26    16    12   ar
    27    14    13   ar
    28    28    27   ar
    29    27    39    1
    30    27    26   ar
    31    13    12   ar
    32    13    18    1
    33    12     4    1
    34    18    17    3
    35     6     8    1
    36     6     3   ar
    37     4     2   ar
    38    39    40   ar
    39    26    34    1
    40     1     2   ar
    41     1     3   ar
    42     1    10    1
    43     2     5    1
    44     3     9    1
    45    34    35    1
    46    35    36    1
    47    35    37    1
    48    41    50    1
    49    41    40   ar
    50    50    49    3
    51    40    45    1
    52    45    48    1
    53    45    46    1
