@<TRIPOS>MOLECULE
mol_data/noopt/geoms/mol2/4aa12fa6ii6ei-.out
 49 52 0 0 0
SMALL
GASTEIGER

@<TRIPOS>ATOM
      1 C           0.0509    0.0309    0.0002 C.ar    1  LIG1       -0.0611
      2 C           1.4592    0.0309    0.0002 C.ar    1  LIG1       -0.0510
      3 C          -0.6045    1.2792    0.0002 C.ar    1  LIG1       -0.0617
      4 C           2.1849    1.2200   -0.0004 C.ar    1  LIG1        0.0209
      5 H           1.9850   -0.9213    0.0004 H       1  LIG1        0.0625
      6 C           0.1195    2.4666   -0.0004 C.ar    1  LIG1       -0.0611
      7 C           1.5181    2.4458   -0.0008 C.ar    1  LIG1       -0.0510
      8 H          -0.4090    3.4165   -0.0003 H       1  LIG1        0.0618
      9 H          -1.9035    1.3287    0.0016 H       1  LIG1        0.0618
     10 H          -0.5708   -1.1108    0.0005 H       1  LIG1        0.0618
     11 H           2.1896    3.5590   -0.0012 H       1  LIG1        0.0625
     12 C           3.4844    1.1831   -0.0005 C.ar    1  LIG1        0.1768
     13 C           4.4399    0.1881   -0.0006 C.ar    1  LIG1        0.1632
     14 C           5.7279    0.8499   -0.0007 C.ar    1  LIG1        0.0265
     15 C           5.4738    2.2061   -0.0008 C.ar    1  LIG1        0.1410
     16 O           4.0977    2.4367   -0.0007 O.2     1  LIG1       -0.4510
     17 O           4.2495   -1.0979   -0.0005 O.3     1  LIG1       -0.5032
     18 H           5.0978   -1.5474   -0.0004 H       1  LIG1        0.2923
     19 H           6.8846    0.2566   -0.0008 H       1  LIG1        0.0692
     20 C           5.5900    4.5523   -0.0007 C.ar    1  LIG1        0.0496
     21 C           6.1999    3.2844   -0.0008 C.ar    1  LIG1        0.0387
     22 C           7.5942    3.2153   -0.0007 C.ar    1  LIG1       -0.0444
     23 C           8.3260    4.4040   -0.0006 C.ar    1  LIG1       -0.0237
     24 C           7.6251    5.6240   -0.0007 C.ar    1  LIG1        0.0769
     25 N           6.2805    5.7091   -0.0006 N.ar    1  LIG1       -0.2508
     26 H           8.1062    2.2426   -0.0018 H       1  LIG1        0.0628
     27 C           4.2949    4.6681   -0.0007 C.3     1  LIG1       -0.0216
     28 H           3.8618    3.8297    0.5037 H       1  LIG1        0.0293
     29 H           3.9396    4.6998   -1.0095 H       1  LIG1        0.0293
     30 H           4.0175    5.5701    0.5037 H       1  LIG1        0.0293
     31 C           9.6262    4.3930   -0.0007 C.3     1  LIG1       -0.0377
     32 H           9.9903    5.2636    0.5037 H       1  LIG1        0.0278
     33 H           9.9829    4.3901   -1.0095 H       1  LIG1        0.0278
     34 H           9.9755    3.5163    0.5037 H       1  LIG1        0.0278
     35 C           7.5521    7.9719   -0.0215 C.ar    1  LIG1        0.1223
     36 C           8.2619    6.7574   -0.0005 C.ar    1  LIG1        0.0347
     37 C           9.6572    6.8008    0.0205 C.ar    1  LIG1       -0.0455
     38 C          10.2908    8.0447    0.0198 C.ar    1  LIG1       -0.0316
     39 C           9.4941    9.2041   -0.0022 C.ar    1  LIG1        0.0319
     40 N           8.1471    9.1805   -0.0225 N.ar    1  LIG1       -0.2458
     41 H          10.2457    5.8726    0.0362 H       1  LIG1        0.0628
     42 H          10.0375   10.3851   -0.0037 H       1  LIG1        0.0832
     43 C           6.2523    7.9829   -0.0414 C.1     1  LIG1       -0.0491
     44 C           5.0513    7.9931   -0.0599 C.1     1  LIG1       -0.1124
     45 H           3.9815    8.0022   -0.0763 H       1  LIG1        0.1232
     46 C          11.5876    8.1385    0.0388 C.3     1  LIG1       -0.0383
     47 H          11.8729    9.0351    0.5484 H       1  LIG1        0.0278
     48 H          11.9580    8.1654   -0.9647 H       1  LIG1        0.0278
     49 H          11.9989    7.2923    0.5483 H       1  LIG1        0.0278
@<TRIPOS>BOND
     1    29    27    1
     2    33    31    1
     3    48    46    1
     4    45    44    1
     5    44    43    3
     6    43    35    1
     7    40    35   ar
     8    40    39   ar
     9    35    36   ar
    10    42    39    1
    11    39    38   ar
    12    26    22    1
    13    11     7    1
    14    21    15    1
    15    21    20   ar
    16    21    22   ar
    17     7     6   ar
    18     7     4   ar
    19    19    14    1
    20    15    16   ar
    21    15    14   ar
    22    16    12   ar
    23    27    20    1
    24    27    30    1
    25    27    28    1
    26    24    25   ar
    27    24    23   ar
    28    24    36    1
    29    14    13   ar
    30    20    25   ar
    31    31    23    1
    32    31    34    1
    33    31    32    1
    34    22    23   ar
    35    13    12   ar
    36    13    17    1
    37    36    37   ar
    38    12     4    1
    39    17    18    1
    40     6     8    1
    41     6     3   ar
    42     4     2   ar
    43     1     3   ar
    44     1     2   ar
    45     1    10    1
    46     3     9    1
    47     2     5    1
    48    38    37   ar
    49    38    46    1
    50    37    41    1
    51    46    49    1
    52    46    47    1
