@<TRIPOS>MOLECULE
mol_data/noopt/geoms/mol2/4aa12ha4dh-4ee.out
 48 51 0 0 0
SMALL
GASTEIGER

@<TRIPOS>ATOM
      1 C           0.0509    0.0309    0.0002 C.ar    1  LIG1       -0.0611
      2 C           1.4592    0.0309    0.0002 C.ar    1  LIG1       -0.0510
      3 C          -0.6045    1.2792    0.0002 C.ar    1  LIG1       -0.0617
      4 C           2.1849    1.2200   -0.0004 C.ar    1  LIG1        0.0191
      5 H           1.9850   -0.9213    0.0004 H       1  LIG1        0.0625
      6 C           0.1195    2.4666   -0.0004 C.ar    1  LIG1       -0.0611
      7 C           1.5181    2.4458   -0.0008 C.ar    1  LIG1       -0.0510
      8 H          -0.4090    3.4165   -0.0003 H       1  LIG1        0.0618
      9 H          -1.9035    1.3287    0.0016 H       1  LIG1        0.0618
     10 H          -0.5708   -1.1108    0.0005 H       1  LIG1        0.0618
     11 H           2.1896    3.5590   -0.0012 H       1  LIG1        0.0625
     12 C           3.4844    1.1831   -0.0005 C.ar    1  LIG1        0.1562
     13 C           4.4399    0.1881   -0.0006 C.ar    1  LIG1        0.0716
     14 C           5.7279    0.8499   -0.0007 C.ar    1  LIG1        0.0056
     15 C           5.4738    2.2061   -0.0008 C.ar    1  LIG1        0.1388
     16 O           4.0977    2.4367   -0.0007 O.2     1  LIG1       -0.4529
     17 N           4.2495   -1.0979   -0.0005 N.pl3   1  LIG1       -0.3550
     18 H           3.3930   -1.3081   -0.4718 H       1  LIG1        0.1424
     19 H           5.0083   -1.5472   -0.4719 H       1  LIG1        0.1424
     20 H           6.8846    0.2566   -0.0008 H       1  LIG1        0.0674
     21 C           7.6060    3.1845    0.0213 C.ar    1  LIG1        0.0631
     22 C           8.3475    4.3818    0.0218 C.ar    1  LIG1       -0.0341
     23 C           6.1998    3.2844   -0.0008 C.ar    1  LIG1        0.0364
     24 C           7.7187    5.6247    0.0007 C.ar    1  LIG1        0.0052
     25 H           9.4337    4.3276    0.0388 H       1  LIG1        0.0637
     26 C           5.5717    4.5250   -0.0219 C.ar    1  LIG1       -0.0285
     27 C           6.3257    5.7031   -0.0214 C.ar    1  LIG1        0.0331
     28 H           4.4859    4.5757   -0.0386 H       1  LIG1        0.0643
     29 N           8.8164    1.0586    0.0589 N.1     1  LIG1       -0.1908
     30 C           8.2492    2.0549    0.0413 C.1     1  LIG1        0.0999
     31 N           5.7330    6.8600   -0.0410 N.pl3   1  LIG1       -0.3575
     32 H           6.3109    7.5225   -0.5174 H       1  LIG1        0.1423
     33 H           4.8576    6.7780   -0.5174 H       1  LIG1        0.1423
     34 C           9.8415    6.6237    0.0030 C.ar    1  LIG1        0.0325
     35 C          10.5713    7.8282    0.0056 C.ar    1  LIG1       -0.0446
     36 C           8.4342    6.7101    0.0017 C.ar    1  LIG1        0.0004
     37 C           9.9303    9.0650    0.0063 C.ar    1  LIG1       -0.0451
     38 H          11.6581    7.7844    0.0069 H       1  LIG1        0.0630
     39 C           7.7939    7.9446    0.0024 C.ar    1  LIG1       -0.0374
     40 C           8.5364    9.1300    0.0046 C.ar    1  LIG1        0.0253
     41 H           6.7076    7.9848    0.0014 H       1  LIG1        0.0636
     42 H          10.6353   10.1573    0.0086 H       1  LIG1        0.0630
     43 C          10.4957    5.5003    0.0022 C.1     1  LIG1       -0.0691
     44 C          11.1002    4.4623    0.0015 C.1     1  LIG1       -0.1139
     45 H          11.6387    3.5377    0.0009 H       1  LIG1        0.1232
     46 C           7.9323   10.2811    0.0053 C.1     1  LIG1       -0.0696
     47 C           7.3742   11.3447    0.0061 C.1     1  LIG1       -0.1139
     48 H           6.8770   12.2922    0.0067 H       1  LIG1        0.1232
@<TRIPOS>BOND
     1    33    31    1
     2    32    31    1
     3    19    17    1
     4    18    17    1
     5    31    27    1
     6    28    26    1
     7    26    27   ar
     8    26    23   ar
     9    27    24   ar
    10    11     7    1
    11    23    15    1
    12    23    21   ar
    13     7     6   ar
    14     7     4   ar
    15    20    14    1
    16    15    16   ar
    17    15    14   ar
    18    16    12   ar
    19    14    13   ar
    20    13    12   ar
    21    13    17    1
    22    12     4    1
    23     6     8    1
    24     6     3   ar
    25     4     2   ar
    26     1     3   ar
    27     1     2   ar
    28     1    10    1
    29     3     9    1
    30     2     5    1
    31    24    36    1
    32    24    22   ar
    33    45    44    1
    34    41    39    1
    35    44    43    3
    36    36    39   ar
    37    36    34   ar
    38    43    34    1
    39    39    40   ar
    40    34    35   ar
    41    40    46    1
    42    40    37   ar
    43    46    47    3
    44    35    37   ar
    45    35    38    1
    46    47    48    1
    47    37    42    1
    48    21    22   ar
    49    21    30    1
    50    22    25    1
    51    30    29    3
