@<TRIPOS>MOLECULE
mol_data/noopt/geoms/mol2/4aa12if6ad-13he-.out
 45 48 0 0 0
SMALL
GASTEIGER

@<TRIPOS>ATOM
      1 C           0.0509    0.0309    0.0002 C.ar    1  LIG1       -0.0611
      2 C           1.4592    0.0309    0.0002 C.ar    1  LIG1       -0.0511
      3 C          -0.6045    1.2792    0.0002 C.ar    1  LIG1       -0.0617
      4 C           2.1849    1.2200   -0.0004 C.ar    1  LIG1        0.0177
      5 H           1.9850   -0.9213    0.0004 H       1  LIG1        0.0625
      6 C           0.1195    2.4666   -0.0004 C.ar    1  LIG1       -0.0611
      7 C           1.5181    2.4458   -0.0008 C.ar    1  LIG1       -0.0511
      8 H          -0.4090    3.4165   -0.0003 H       1  LIG1        0.0618
      9 H          -1.9035    1.3287    0.0016 H       1  LIG1        0.0618
     10 H          -0.5708   -1.1108    0.0005 H       1  LIG1        0.0618
     11 H           2.1896    3.5590   -0.0012 H       1  LIG1        0.0625
     12 C           3.4844    1.1831   -0.0005 C.ar    1  LIG1        0.1422
     13 C           4.4399    0.1881   -0.0006 C.ar    1  LIG1        0.0374
     14 C           5.7279    0.8499   -0.0007 C.ar    1  LIG1        0.1662
     15 C           5.4738    2.2061   -0.0008 C.ar    1  LIG1        0.1786
     16 O           4.0977    2.4367   -0.0007 O.2     1  LIG1       -0.4507
     17 C           4.2495   -1.0982   -0.0005 C.3     1  LIG1       -0.0326
     18 H           5.0615   -1.5789    0.5040 H       1  LIG1        0.0280
     19 H           4.1973   -1.4511   -1.0093 H       1  LIG1        0.0280
     20 H           3.3330   -1.3230    0.5039 H       1  LIG1        0.0280
     21 O           6.8846    0.2566   -0.0008 O.3     1  LIG1       -0.5030
     22 H           7.5827    0.9155   -0.0008 H       1  LIG1        0.2923
     23 C           5.5902    4.5522   -0.0218 C.ar    1  LIG1        0.0392
     24 C           6.1999    3.2844   -0.0008 C.ar    1  LIG1        0.0403
     25 C           7.5941    3.2154    0.0202 C.ar    1  LIG1       -0.0300
     26 C           8.3258    4.4041    0.0192 C.ar    1  LIG1        0.0798
     27 C           7.6251    5.6240   -0.0029 C.ar    1  LIG1        0.1062
     28 N           6.2806    5.7090   -0.0231 N.ar    1  LIG1       -0.2514
     29 H           8.1059    2.2427    0.0360 H       1  LIG1        0.0639
     30 H           4.2955    4.6679   -0.0417 H       1  LIG1        0.0837
     31 N          10.7721    4.3836    0.0547 N.1     1  LIG1       -0.1908
     32 C           9.6256    4.3932    0.0381 C.1     1  LIG1        0.1014
     33 C           8.2619    6.7574   -0.0045 C.ar    1  LIG1        0.0884
     34 C           9.5958    7.0195   -0.0060 C.ar    1  LIG1        0.0673
     35 C           9.7519    8.4430   -0.0064 C.ar    1  LIG1        0.0632
     36 C           8.5066    8.9881   -0.0069 C.ar    1  LIG1        0.0195
     37 N           7.5914    7.9596   -0.0053 N.ar    1  LIG1       -0.3568
     38 H           6.6033    8.0680   -0.0053 H       1  LIG1        0.1655
     39 H           8.1305   10.2325   -0.0075 H       1  LIG1        0.0820
     40 N          10.5509    6.1376   -0.0056 N.pl3   1  LIG1       -0.3553
     41 H          10.2420    5.3115   -0.4768 H       1  LIG1        0.1424
     42 H          11.3498    6.5112   -0.4769 H       1  LIG1        0.1424
     43 C          10.8754    9.0969   -0.0067 C.1     1  LIG1       -0.0663
     44 C          11.9136    9.7012   -0.0070 C.1     1  LIG1       -0.1138
     45 H          12.8383   10.2395   -0.0073 H       1  LIG1        0.1232
@<TRIPOS>BOND
     1    19    17    1
     2    42    40    1
     3    41    40    1
     4    30    23    1
     5    28    23   ar
     6    28    27   ar
     7    23    24   ar
     8    39    36    1
     9    45    44    1
    10    44    43    3
    11    36    35   ar
    12    36    37   ar
    13    43    35    1
    14    35    34   ar
    15    34    40    1
    16    34    33   ar
    17    38    37    1
    18    37    33   ar
    19    33    27    1
    20    27    26   ar
    21    11     7    1
    22    24    15    1
    23    24    25   ar
    24     7     6   ar
    25     7     4   ar
    26    22    21    1
    27    21    14    1
    28    15    16   ar
    29    15    14   ar
    30    16    12   ar
    31    14    13   ar
    32    13    12   ar
    33    13    17    1
    34    12     4    1
    35    17    20    1
    36    17    18    1
    37     6     8    1
    38     6     3   ar
    39     4     2   ar
    40     1     3   ar
    41     1     2   ar
    42     1    10    1
    43     3     9    1
    44     2     5    1
    45    26    25   ar
    46    26    32    1
    47    25    29    1
    48    32    31    3
