@<TRIPOS>MOLECULE
mol_data/noopt/geoms/mol2/4aa13ie(50)12ei(120)6ed(250).out
 49 52 0 0 0
SMALL
GASTEIGER

@<TRIPOS>ATOM
      1 C           0.0509    0.0309    0.0002 C.ar    1  LIG1       -0.0611
      2 C           1.4592    0.0309    0.0002 C.ar    1  LIG1       -0.0526
      3 C          -0.6045    1.2792    0.0002 C.ar    1  LIG1       -0.0617
      4 C           2.1849    1.2200   -0.0004 C.ar    1  LIG1       -0.0014
      5 H           1.9850   -0.9213    0.0004 H       1  LIG1        0.0624
      6 C           0.1195    2.4666   -0.0004 C.ar    1  LIG1       -0.0611
      7 C           1.5181    2.4458   -0.0008 C.ar    1  LIG1       -0.0526
      8 H          -0.4090    3.4165   -0.0003 H       1  LIG1        0.0618
      9 H          -1.9035    1.3287    0.0016 H       1  LIG1        0.0618
     10 H          -0.5708   -1.1108    0.0005 H       1  LIG1        0.0618
     11 H           2.1896    3.5590   -0.0012 H       1  LIG1        0.0624
     12 C           3.4844    1.1831   -0.0005 C.ar    1  LIG1        0.0511
     13 C           4.3462    0.4609    0.7634 C.ar    1  LIG1       -0.0091
     14 C           5.6739    0.8026    0.3496 C.ar    1  LIG1        0.0565
     15 C           5.5649    1.7172   -0.6502 C.ar    1  LIG1        0.0996
     16 N           4.2262    1.9534   -0.8674 N.ar    1  LIG1       -0.3505
     17 H           3.8542    2.5801   -1.5434 H       1  LIG1        0.1660
     18 C           4.0212   -0.3826    1.6981 C.3     1  LIG1       -0.0365
     19 H           4.8776   -0.5898    2.3052 H       1  LIG1        0.0279
     20 H           3.6713   -1.2907    1.2531 H       1  LIG1        0.0279
     21 H           3.2471    0.0384    2.3051 H       1  LIG1        0.0279
     22 C           6.7814    0.3276    0.8372 C.1     1  LIG1       -0.0672
     23 C           7.8047   -0.1113    1.2878 C.1     1  LIG1       -0.1138
     24 H           8.7163   -0.5023    1.6892 H       1  LIG1        0.1232
     25 C           6.4831    2.3236   -1.3425 C.ar    1  LIG1        0.1685
     26 C           7.2432    3.4636   -1.1825 C.ar    1  LIG1        0.0754
     27 C           8.0919    3.5637   -2.3515 C.ar    1  LIG1        0.0115
     28 C           7.7941    2.4777   -3.1486 C.ar    1  LIG1        0.1426
     29 O           6.8050    1.6981   -2.5479 O.2     1  LIG1       -0.4517
     30 C           7.2220    4.3010   -0.1883 C.1     1  LIG1       -0.0655
     31 C           7.2024    5.0747    0.7302 C.1     1  LIG1       -0.1138
     32 H           7.1849    5.7640    1.5485 H       1  LIG1        0.1232
     33 C           8.9586    4.5057   -2.5803 C.3     1  LIG1       -0.0349
     34 H           8.6135    5.4209   -2.1465 H       1  LIG1        0.0279
     35 H           9.0761    4.6335   -3.6362 H       1  LIG1        0.0279
     36 H           9.8994    4.2378   -2.1465 H       1  LIG1        0.0279
     37 C           8.8173    0.7621   -4.3848 C.ar    1  LIG1        0.1238
     38 C           8.2106    2.0283   -4.2952 C.ar    1  LIG1        0.0526
     39 C           8.0683    2.7834   -5.4607 C.ar    1  LIG1       -0.0295
     40 C           8.5329    2.2534   -6.6657 C.ar    1  LIG1        0.0706
     41 C           9.1260    0.9776   -6.6538 C.ar    1  LIG1        0.0464
     42 N           9.2710    0.2354   -5.5387 N.ar    1  LIG1       -0.2447
     43 H           7.6002    3.7775   -5.4297 H       1  LIG1        0.0639
     44 H           9.5736    0.4416   -7.7502 H       1  LIG1        0.0843
     45 C           8.9719    0.0218   -3.3274 C.1     1  LIG1       -0.0491
     46 C           9.1149   -0.6622   -2.3504 C.1     1  LIG1       -0.1124
     47 H           9.2422   -1.2715   -1.4801 H       1  LIG1        0.1232
     48 N           8.3279    3.5024   -8.7594 N.1     1  LIG1       -0.1908
     49 C           8.4240    2.9171   -7.7782 C.1     1  LIG1        0.1007
@<TRIPOS>BOND
     1    48    49    3
     2    49    40    1
     3    44    41    1
     4    40    41   ar
     5    40    39   ar
     6    41    42   ar
     7    42    37   ar
     8    39    43    1
     9    39    38   ar
    10    37    38   ar
    11    37    45    1
    12    38    28    1
    13    35    33    1
    14    45    46    3
    15    28    29   ar
    16    28    27   ar
    17    33    27    1
    18    33    36    1
    19    33    34    1
    20    29    25   ar
    21    27    26   ar
    22    46    47    1
    23    17    16    1
    24    25    26   ar
    25    25    15    1
    26    26    30    1
    27    16    15   ar
    28    16    12   ar
    29    15    14   ar
    30    30    31    3
    31    11     7    1
    32     7     4   ar
    33     7     6   ar
    34    12     4    1
    35    12    13   ar
    36     4     2   ar
    37     6     8    1
    38     6     3   ar
    39     2     1   ar
    40     2     5    1
    41     3     1   ar
    42     3     9    1
    43     1    10    1
    44    14    13   ar
    45    14    22    1
    46    31    32    1
    47    13    18    1
    48    22    23    3
    49    20    18    1
    50    23    24    1
    51    18    21    1
    52    18    19    1
