@<TRIPOS>MOLECULE
mol_data/noopt/geoms/mol2/4aa4aa-12al-4il.out
 50 52 0 0 0
SMALL
GASTEIGER

@<TRIPOS>ATOM
      1 C           0.0509    0.0309    0.0002 C.ar    1  LIG1       -0.0612
      2 C           1.4592    0.0309    0.0002 C.ar    1  LIG1       -0.0540
      3 C          -0.6045    1.2792    0.0002 C.ar    1  LIG1       -0.0617
      4 C           2.1849    1.2200   -0.0004 C.ar    1  LIG1       -0.0179
      5 H           1.9850   -0.9213    0.0004 H       1  LIG1        0.0624
      6 C           0.1195    2.4666   -0.0004 C.ar    1  LIG1       -0.0612
      7 C           1.5181    2.4458   -0.0008 C.ar    1  LIG1       -0.0540
      8 H          -0.4090    3.4165   -0.0003 H       1  LIG1        0.0618
      9 H          -1.9035    1.3287    0.0016 H       1  LIG1        0.0618
     10 H          -0.5708   -1.1108    0.0005 H       1  LIG1        0.0618
     11 H           2.1896    3.5590   -0.0012 H       1  LIG1        0.0624
     12 C           4.1518   -0.0586    0.0215 C.ar    1  LIG1       -0.0534
     13 C           5.5600   -0.0449    0.0220 C.ar    1  LIG1       -0.0505
     14 C           3.4843    1.1831   -0.0005 C.ar    1  LIG1       -0.0178
     15 C           6.2742    1.1510    0.0009 C.ar    1  LIG1        0.0174
     16 H           6.0951   -0.9918    0.0390 H       1  LIG1        0.0625
     17 C           4.1968    2.3773   -0.0216 C.ar    1  LIG1       -0.0534
     18 C           5.5955    2.3701   -0.0212 C.ar    1  LIG1       -0.0505
     19 H           3.6591    3.3219   -0.0383 H       1  LIG1        0.0624
     20 H           3.5412   -1.2061    0.0416 H       1  LIG1        0.0624
     21 H           6.2561    3.4895   -0.0408 H       1  LIG1        0.0625
     22 C           7.5739    1.1267    0.0018 C.ar    1  LIG1        0.1395
     23 C           8.5391    0.1412    0.0174 C.ar    1  LIG1        0.0317
     24 C           9.8206    0.8154    0.0077 C.ar    1  LIG1        0.2250
     25 C           9.5534    2.1688   -0.0133 C.ar    1  LIG1        0.1824
     26 O           8.1751    2.3860   -0.0173 O.2     1  LIG1       -0.4509
     27 H           8.3612   -1.1464    0.0371 H       1  LIG1        0.0694
     28 O          10.9830    0.2334    0.0171 O.3     1  LIG1       -0.2839
     29 C          10.8062   -1.1857    0.0205 C.3     2  LIG2       -0.0681
     30 H          11.7632   -1.6643    0.0281 H       1  LIG1        0.0227
     31 H          10.2561   -1.4745    0.8917 H       1  LIG1        0.0227
     32 H          10.2672   -1.4801   -0.8556 H       1  LIG1        0.0227
     33 C          11.6761    3.1676   -0.0376 C.ar    1  LIG1       -0.0394
     34 C          12.4059    4.3719   -0.0537 C.ar    1  LIG1       -0.0547
     35 C          10.2689    3.2540   -0.0295 C.ar    1  LIG1        0.0275
     36 C          11.7650    5.6088   -0.0621 C.ar    1  LIG1       -0.0197
     37 H          13.4927    4.3281   -0.0599 H       1  LIG1        0.0622
     38 C           9.6286    4.4886   -0.0379 C.ar    1  LIG1       -0.0089
     39 C          10.3711    5.6738   -0.0543 C.ar    1  LIG1        0.1208
     40 H           8.5423    4.5289   -0.0313 H       1  LIG1        0.0661
     41 H          12.4700    6.7009   -0.0770 H       1  LIG1        0.0654
     42 C          12.3304    2.0439   -0.0307 C.3     1  LIG1       -0.0390
     43 H          13.2635    2.1777    0.4756 H       1  LIG1        0.0278
     44 H          12.5127    1.7311   -1.0376 H       1  LIG1        0.0278
     45 H          11.7536    1.2984    0.4756 H       1  LIG1        0.0278
     46 O           9.7671    6.8250   -0.0619 O.3     1  LIG1       -0.4951
     47 C          10.7390    7.8739   -0.0648 C.3     1  LIG1        0.0788
     48 H          10.2414    8.8212   -0.0712 H       1  LIG1        0.0660
     49 H          11.3490    7.7974    0.8111 H       1  LIG1        0.0660
     50 H          11.3538    7.7881   -0.9362 H       1  LIG1        0.0660
@<TRIPOS>BOND
     1    44    42    1
     2    50    47    1
     3    32    29    1
     4    41    36    1
     5    48    47    1
     6    47    46    1
     7    47    49    1
     8    36    39   ar
     9    36    34   ar
    10    46    39    1
    11    37    34    1
    12    39    38   ar
    13    34    33   ar
    14    21    18    1
    15    19    17    1
    16    38    40    1
    17    38    35   ar
    18    33    42    1
    19    33    35   ar
    20    42    45    1
    21    42    43    1
    22    35    25    1
    23    17    18   ar
    24    17    14   ar
    25    18    15   ar
    26    26    25   ar
    27    26    22   ar
    28    25    24   ar
    29    11     7    1
    30     7     4   ar
    31     7     6   ar
    32    14     4    1
    33    14    12   ar
    34     4     2   ar
    35     6     8    1
    36     6     3   ar
    37     2     1   ar
    38     2     5    1
    39     3     1   ar
    40     3     9    1
    41     1    10    1
    42    15    22    1
    43    15    13   ar
    44    22    23   ar
    45    24    28    1
    46    24    23   ar
    47    23    27    1
    48    29    30    1
    49    29    31    1
    50    12    13   ar
    51    12    20    1
    52    13    16    1
