@<TRIPOS>MOLECULE
mol_data/noopt/geoms/mol2/4aa4aa4aa4aa.out
 42 45 0 0 0
SMALL
GASTEIGER

@<TRIPOS>ATOM
      1 C           0.0509    0.0309    0.0002 C.ar    1  LIG1       -0.0612
      2 C           1.4592    0.0309    0.0002 C.ar    1  LIG1       -0.0540
      3 C          -0.6045    1.2792    0.0002 C.ar    1  LIG1       -0.0617
      4 C           2.1849    1.2200   -0.0004 C.ar    1  LIG1       -0.0179
      5 H           1.9850   -0.9213    0.0004 H       1  LIG1        0.0624
      6 C           0.1195    2.4666   -0.0004 C.ar    1  LIG1       -0.0612
      7 C           1.5181    2.4458   -0.0008 C.ar    1  LIG1       -0.0540
      8 H          -0.4090    3.4165   -0.0003 H       1  LIG1        0.0618
      9 H          -1.9035    1.3287    0.0016 H       1  LIG1        0.0618
     10 H          -0.5708   -1.1108    0.0005 H       1  LIG1        0.0618
     11 H           2.1896    3.5590   -0.0012 H       1  LIG1        0.0624
     12 C           4.1518   -0.0588    0.0002 C.ar    1  LIG1       -0.0535
     13 C           5.5600   -0.0451    0.0016 C.ar    1  LIG1       -0.0535
     14 C           3.4843    1.1831   -0.0005 C.ar    1  LIG1       -0.0178
     15 C           6.2742    1.1510    0.0017 C.ar    1  LIG1       -0.0178
     16 H           6.0950   -0.9922    0.0024 H       1  LIG1        0.0624
     17 C           4.1968    2.3775   -0.0004 C.ar    1  LIG1       -0.0535
     18 C           5.5955    2.3702    0.0006 C.ar    1  LIG1       -0.0535
     19 H           3.6591    3.3222   -0.0009 H       1  LIG1        0.0624
     20 H           3.5412   -1.2064   -0.0001 H       1  LIG1        0.0624
     21 H           6.2561    3.4899    0.0008 H       1  LIG1        0.0624
     22 C           8.2534   -0.1087    0.0043 C.ar    1  LIG1       -0.0535
     23 C           9.6614   -0.0814    0.0071 C.ar    1  LIG1       -0.0535
     24 C           7.5739    1.1267    0.0029 C.ar    1  LIG1       -0.0178
     25 C          10.3639    1.1216    0.0079 C.ar    1  LIG1       -0.0178
     26 H          10.2056   -1.0232    0.0084 H       1  LIG1        0.0624
     27 C           8.2747    2.3279    0.0036 C.ar    1  LIG1       -0.0535
     28 C           9.6734    2.3342    0.0060 C.ar    1  LIG1       -0.0535
     29 H           7.7279    3.2674    0.0026 H       1  LIG1        0.0624
     30 H           7.6539   -1.2622    0.0034 H       1  LIG1        0.0624
     31 H          10.3232    3.4602    0.0069 H       1  LIG1        0.0624
     32 C          12.3552   -0.1188    0.0125 C.ar    1  LIG1       -0.0540
     33 C          13.7629   -0.0778    0.0167 C.ar    1  LIG1       -0.0612
     34 C          11.6638    1.1099    0.0104 C.ar    1  LIG1       -0.0179
     35 C          14.4537    1.1319    0.0181 C.ar    1  LIG1       -0.0617
     36 H          14.3162   -1.0143    0.0186 H       1  LIG1        0.0618
     37 C          12.3529    2.3179    0.0118 C.ar    1  LIG1       -0.0540
     38 C          13.7515    2.3378    0.0156 C.ar    1  LIG1       -0.0612
     39 H          11.7970    3.2520    0.0102 H       1  LIG1        0.0624
     40 H          15.7537    1.1328    0.0219 H       1  LIG1        0.0618
     41 H          11.7670   -1.2781    0.0110 H       1  LIG1        0.0624
     42 H          14.3903    3.4700    0.0171 H       1  LIG1        0.0618
@<TRIPOS>BOND
     1    11     7    1
     2    19    17    1
     3     7     4   ar
     4     7     6   ar
     5    14    17   ar
     6    14     4    1
     7    14    12   ar
     8    17    18   ar
     9     4     2   ar
    10     6     8    1
    11     6     3   ar
    12    20    12    1
    13     2     1   ar
    14     2     5    1
    15     3     1   ar
    16     3     9    1
    17     1    10    1
    18    12    13   ar
    19    18    21    1
    20    18    15   ar
    21    13    15   ar
    22    13    16    1
    23    15    24    1
    24    29    27    1
    25    24    27   ar
    26    24    22   ar
    27    30    22    1
    28    27    28   ar
    29    22    23   ar
    30    28    31    1
    31    28    25   ar
    32    23    25   ar
    33    23    26    1
    34    25    34    1
    35    39    37    1
    36    34    37   ar
    37    34    32   ar
    38    41    32    1
    39    37    38   ar
    40    32    33   ar
    41    38    42    1
    42    38    35   ar
    43    33    35   ar
    44    33    36    1
    45    35    40    1
