@<TRIPOS>MOLECULE
mol_data/noopt/geoms/mol2/4aa4aa-4aa.out
 32 34 0 0 0
SMALL
GASTEIGER

@<TRIPOS>ATOM
      1 C           0.0509    0.0309    0.0002 C.ar    1  LIG1       -0.0612
      2 C           1.4592    0.0309    0.0002 C.ar    1  LIG1       -0.0540
      3 C          -0.6045    1.2792    0.0002 C.ar    1  LIG1       -0.0617
      4 C           2.1849    1.2200   -0.0004 C.ar    1  LIG1       -0.0179
      5 H           1.9850   -0.9213    0.0004 H       1  LIG1        0.0624
      6 C           0.1195    2.4666   -0.0004 C.ar    1  LIG1       -0.0612
      7 C           1.5181    2.4458   -0.0008 C.ar    1  LIG1       -0.0540
      8 H          -0.4090    3.4165   -0.0003 H       1  LIG1        0.0618
      9 H          -1.9035    1.3287    0.0016 H       1  LIG1        0.0618
     10 H          -0.5708   -1.1108    0.0005 H       1  LIG1        0.0618
     11 H           2.1896    3.5590   -0.0012 H       1  LIG1        0.0624
     12 C           4.2212    2.3851    0.0002 C.ar    1  LIG1       -0.0535
     13 C           5.6264    2.2916    0.0016 C.ar    1  LIG1       -0.0535
     14 C           3.4843    1.1831   -0.0005 C.ar    1  LIG1       -0.0178
     15 C           6.2715    1.0569    0.0017 C.ar    1  LIG1       -0.0178
     16 H           6.2143    3.2067    0.0024 H       1  LIG1        0.0624
     17 C           4.1278   -0.0498   -0.0004 C.ar    1  LIG1       -0.0535
     18 C           5.5247   -0.1219    0.0006 C.ar    1  LIG1       -0.0535
     19 H           3.5374   -0.9625   -0.0009 H       1  LIG1        0.0624
     20 H           3.6767    3.5656   -0.0001 H       1  LIG1        0.0624
     21 H           6.1208   -1.2772    0.0008 H       1  LIG1        0.0624
     22 C           8.2259   -0.2409    0.0043 C.ar    1  LIG1       -0.0540
     23 C           9.6342   -0.2409    0.0071 C.ar    1  LIG1       -0.0612
     24 C           7.5705    1.0074    0.0029 C.ar    1  LIG1       -0.0179
     25 C          10.3599    0.9482    0.0079 C.ar    1  LIG1       -0.0617
     26 H          10.1600   -1.1931    0.0084 H       1  LIG1        0.0618
     27 C           8.2945    2.1948    0.0036 C.ar    1  LIG1       -0.0540
     28 C           9.6931    2.1740    0.0060 C.ar    1  LIG1       -0.0612
     29 H           7.7660    3.1447    0.0026 H       1  LIG1        0.0624
     30 H          11.6594    0.9113    0.0104 H       1  LIG1        0.0618
     31 H           7.6041   -1.3826    0.0034 H       1  LIG1        0.0624
     32 H          10.3646    3.2871    0.0069 H       1  LIG1        0.0618
@<TRIPOS>BOND
     1    11     7    1
     2    19    17    1
     3     7     4   ar
     4     7     6   ar
     5    14    17   ar
     6    14     4    1
     7    14    12   ar
     8    17    18   ar
     9     4     2   ar
    10     6     8    1
    11     6     3   ar
    12    20    12    1
    13    12    13   ar
    14     1     3   ar
    15     1     2   ar
    16     1    10    1
    17     3     9    1
    18     2     5    1
    19    18    21    1
    20    18    15   ar
    21    13    15   ar
    22    13    16    1
    23    15    24    1
    24    29    27    1
    25    24    27   ar
    26    24    22   ar
    27    31    22    1
    28    27    28   ar
    29    22    23   ar
    30    28    32    1
    31    28    25   ar
    32    23    25   ar
    33    23    26    1
    34    25    30    1
