@<TRIPOS>MOLECULE
mol_data/noopt/geoms/mol2/4aa4eh(50)4id(120)6eh(250).out
 53 56 0 0 0
SMALL
GASTEIGER

@<TRIPOS>ATOM
      1 C           0.0509    0.0309    0.0002 C.ar    1  LIG1       -0.0612
      2 C           1.4592    0.0309    0.0002 C.ar    1  LIG1       -0.0540
      3 C          -0.6045    1.2792    0.0002 C.ar    1  LIG1       -0.0617
      4 C           2.1849    1.2200   -0.0004 C.ar    1  LIG1       -0.0167
      5 H           1.9850   -0.9213    0.0004 H       1  LIG1        0.0624
      6 C           0.1195    2.4666   -0.0004 C.ar    1  LIG1       -0.0612
      7 C           1.5181    2.4458   -0.0008 C.ar    1  LIG1       -0.0540
      8 H          -0.4090    3.4165   -0.0003 H       1  LIG1        0.0618
      9 H          -1.9035    1.3287    0.0016 H       1  LIG1        0.0618
     10 H          -0.5708   -1.1108    0.0005 H       1  LIG1        0.0618
     11 H           2.1896    3.5590   -0.0012 H       1  LIG1        0.0624
     12 C           4.1643    0.3783    0.9363 C.ar    1  LIG1        0.0331
     13 C           5.5720    0.3739    0.8961 C.ar    1  LIG1       -0.0363
     14 C           3.4843    1.1831   -0.0005 C.ar    1  LIG1       -0.0007
     15 C           6.2737    1.1360   -0.0352 C.ar    1  LIG1        0.0042
     16 H           6.1165   -0.2399    1.6101 H       1  LIG1        0.0637
     17 C           4.1844    1.9441   -0.9305 C.ar    1  LIG1       -0.0316
     18 C           5.5828    1.9261   -0.9548 C.ar    1  LIG1        0.0330
     19 H           3.6372    2.5567   -1.6425 H       1  LIG1        0.0643
     20 C           3.5655   -0.3539    1.8282 C.1     1  LIG1       -0.0690
     21 C           3.0122   -1.0303    2.6523 C.1     1  LIG1       -0.1139
     22 H           2.5194   -1.6329    3.3864 H       1  LIG1        0.1232
     23 N           6.2319    2.6397   -1.8263 N.pl3   1  LIG1       -0.3575
     24 H           6.7896    2.0394   -2.3996 H       1  LIG1        0.1423
     25 H           5.5817    3.1382   -2.3996 H       1  LIG1        0.1423
     26 C           8.2960    1.7048    1.0093 C.ar    1  LIG1       -0.0420
     27 C           9.7020    1.6492    0.9524 C.ar    1  LIG1       -0.0492
     28 C           7.5733    1.1082   -0.0441 C.ar    1  LIG1       -0.0119
     29 C          10.3615    1.0271   -0.1052 C.ar    1  LIG1        0.0025
     30 H          10.2791    2.1034    1.7548 H       1  LIG1        0.0627
     31 C           8.2312    0.4870   -1.1003 C.ar    1  LIG1       -0.0357
     32 C           9.6287    0.4419   -1.1385 C.ar    1  LIG1        0.0601
     33 H           7.6516    0.0343   -1.9007 H       1  LIG1        0.0637
     34 C           7.7375    2.2990    2.0221 C.3     1  LIG1       -0.0391
     35 H           7.2168    1.5774    2.6163 H       1  LIG1        0.0278
     36 H           7.0461    3.0346    1.6673 H       1  LIG1        0.0278
     37 H           8.4901    2.7740    2.6162 H       1  LIG1        0.0278
     38 N          10.7759   -0.6533   -3.0015 N.1     1  LIG1       -0.1908
     39 C          10.2383   -0.1400   -2.1284 C.1     1  LIG1        0.0998
     40 C          12.3792    0.5601    1.0035 C.ar    1  LIG1        0.1209
     41 C          11.6609    0.9941   -0.1257 C.ar    1  LIG1        0.0189
     42 C          12.3747    1.3851   -1.2601 C.ar    1  LIG1       -0.0292
     43 C          13.7692    1.3302   -1.2286 C.ar    1  LIG1        0.0436
     44 C          14.3972    0.8819   -0.0521 C.ar    1  LIG1        0.0496
     45 N          13.7242    0.5007    1.0511 N.ar    1  LIG1       -0.2443
     46 H          11.8480    1.7310   -2.1608 H       1  LIG1        0.0643
     47 H          15.6930    0.8130    0.0257 H       1  LIG1        0.0849
     48 C          11.7593    0.1859    2.0832 C.1     1  LIG1       -0.0492
     49 C          11.1866   -0.1598    3.0808 C.1     1  LIG1       -0.1124
     50 H          10.6764   -0.4678    3.9695 H       1  LIG1        0.1232
     51 N          14.4791    1.6835   -2.2588 N.pl3   1  LIG1       -0.3568
     52 H          14.6905    0.8767   -2.8105 H       1  LIG1        0.1424
     53 H          13.9628    2.3386   -2.8105 H       1  LIG1        0.1424
@<TRIPOS>BOND
     1    38    39    3
     2    53    51    1
     3    52    51    1
     4    25    23    1
     5    24    23    1
     6    51    43    1
     7    46    42    1
     8    39    32    1
     9    33    31    1
    10    23    18    1
    11    19    17    1
    12    42    43   ar
    13    42    41   ar
    14    43    44   ar
    15    32    31   ar
    16    32    29   ar
    17    31    28   ar
    18    18    17   ar
    19    18    15   ar
    20    17    14   ar
    21    41    29    1
    22    41    40   ar
    23    29    27   ar
    24    44    47    1
    25    44    45   ar
    26    28    15    1
    27    28    26   ar
    28    15    13   ar
    29    11     7    1
    30     7     6   ar
    31     7     4   ar
    32    14     4    1
    33    14    12   ar
    34     6     8    1
    35     6     3   ar
    36     4     2   ar
    37     1     2   ar
    38     1     3   ar
    39     1    10    1
    40     2     5    1
    41     3     9    1
    42    13    12   ar
    43    13    16    1
    44    12    20    1
    45    27    26   ar
    46    27    30    1
    47    40    45   ar
    48    40    48    1
    49    26    34    1
    50    36    34    1
    51    20    21    3
    52    34    37    1
    53    34    35    1
    54    48    49    3
    55    21    22    1
    56    49    50    1
