@<TRIPOS>MOLECULE
mol_data/noopt/geoms/mol2/4aa4aa-4aa-4aa.out
 42 45 0 0 0
SMALL
GASTEIGER

@<TRIPOS>ATOM
      1 C           0.0509    0.0309    0.0002 C.ar    1  LIG1       -0.0612
      2 C           1.4592    0.0309    0.0002 C.ar    1  LIG1       -0.0540
      3 C          -0.6045    1.2792    0.0002 C.ar    1  LIG1       -0.0617
      4 C           2.1849    1.2200   -0.0004 C.ar    1  LIG1       -0.0179
      5 H           1.9850   -0.9213    0.0004 H       1  LIG1        0.0624
      6 C           0.1195    2.4666   -0.0004 C.ar    1  LIG1       -0.0612
      7 C           1.5181    2.4458   -0.0008 C.ar    1  LIG1       -0.0540
      8 H          -0.4090    3.4165   -0.0003 H       1  LIG1        0.0618
      9 H          -1.9035    1.3287    0.0016 H       1  LIG1        0.0618
     10 H          -0.5708   -1.1108    0.0005 H       1  LIG1        0.0618
     11 H           2.1896    3.5590   -0.0012 H       1  LIG1        0.0624
     12 C           4.2212    2.3851    0.0002 C.ar    1  LIG1       -0.0535
     13 C           5.6264    2.2916    0.0016 C.ar    1  LIG1       -0.0535
     14 C           3.4843    1.1831   -0.0005 C.ar    1  LIG1       -0.0178
     15 C           6.2715    1.0569    0.0017 C.ar    1  LIG1       -0.0178
     16 H           6.2143    3.2067    0.0024 H       1  LIG1        0.0624
     17 C           4.1278   -0.0498   -0.0004 C.ar    1  LIG1       -0.0535
     18 C           5.5247   -0.1219    0.0006 C.ar    1  LIG1       -0.0535
     19 H           3.5374   -0.9625   -0.0009 H       1  LIG1        0.0624
     20 H           3.6767    3.5656   -0.0001 H       1  LIG1        0.0624
     21 H           6.1208   -1.2772    0.0008 H       1  LIG1        0.0624
     22 C           8.3190    2.2022    0.0043 C.ar    1  LIG1       -0.0535
     23 C           9.7232    2.0950    0.0071 C.ar    1  LIG1       -0.0535
     24 C           7.5705    1.0074    0.0029 C.ar    1  LIG1       -0.0178
     25 C          10.3563    0.8541    0.0079 C.ar    1  LIG1       -0.0178
     26 H          10.3199    3.0044    0.0084 H       1  LIG1        0.0624
     27 C           8.2020   -0.2317    0.0037 C.ar    1  LIG1       -0.0535
     28 C           9.5982   -0.3174    0.0061 C.ar    1  LIG1       -0.0535
     29 H           7.6028   -1.1386    0.0026 H       1  LIG1        0.0624
     30 H           7.7859    3.3879    0.0034 H       1  LIG1        0.0624
     31 H          10.1830   -1.4784    0.0069 H       1  LIG1        0.0624
     32 C          12.2980   -0.4626    0.0125 C.ar    1  LIG1       -0.0540
     33 C          13.7062   -0.4762    0.0167 C.ar    1  LIG1       -0.0612
     34 C          11.6548    0.7920    0.0104 C.ar    1  LIG1       -0.0179
     35 C          14.4434    0.7058    0.0181 C.ar    1  LIG1       -0.0617
     36 H          14.2228   -1.4335    0.0186 H       1  LIG1        0.0618
     37 C          12.3902    1.9724    0.0118 C.ar    1  LIG1       -0.0540
     38 C          13.7886    1.9380    0.0156 C.ar    1  LIG1       -0.0612
     39 H          11.8710    2.9273    0.0102 H       1  LIG1        0.0624
     40 H          15.7425    0.6563    0.0219 H       1  LIG1        0.0618
     41 H          11.6652   -1.5982    0.0110 H       1  LIG1        0.0624
     42 H          14.4708    3.0446    0.0171 H       1  LIG1        0.0618
@<TRIPOS>BOND
     1    11     7    1
     2    19    17    1
     3     7     4   ar
     4     7     6   ar
     5    14    17   ar
     6    14     4    1
     7    14    12   ar
     8    17    18   ar
     9     4     2   ar
    10     6     8    1
    11     6     3   ar
    12    20    12    1
    13    12    13   ar
    14     1     3   ar
    15     1     2   ar
    16     1    10    1
    17     3     9    1
    18     2     5    1
    19    18    21    1
    20    18    15   ar
    21    13    15   ar
    22    13    16    1
    23    15    24    1
    24    29    27    1
    25    24    27   ar
    26    24    22   ar
    27    30    22    1
    28    27    28   ar
    29    22    23   ar
    30    28    31    1
    31    28    25   ar
    32    23    25   ar
    33    23    26    1
    34    25    34    1
    35    39    37    1
    36    34    37   ar
    37    34    32   ar
    38    41    32    1
    39    37    38   ar
    40    32    33   ar
    41    38    42    1
    42    38    35   ar
    43    33    35   ar
    44    33    36    1
    45    35    40    1
