@<TRIPOS>MOLECULE
mol_data/noopt/geoms/mol2/4aa6ld-6di6ia13ld12ie-13hd-12he.out
 98 104 0 0 0
SMALL
GASTEIGER

@<TRIPOS>ATOM
      1 C           0.0509    0.0309    0.0002 C.ar    1  LIG1       -0.0612
      2 C           1.4592    0.0309    0.0002 C.ar    1  LIG1       -0.0539
      3 C          -0.6045    1.2792    0.0002 C.ar    1  LIG1       -0.0617
      4 C           2.1849    1.2200   -0.0004 C.ar    1  LIG1       -0.0128
      5 H           1.9850   -0.9213    0.0004 H       1  LIG1        0.0624
      6 C           0.1195    2.4666   -0.0004 C.ar    1  LIG1       -0.0612
      7 C           1.5181    2.4458   -0.0008 C.ar    1  LIG1       -0.0539
      8 H          -0.4090    3.4165   -0.0003 H       1  LIG1        0.0618
      9 H          -1.9035    1.3287    0.0016 H       1  LIG1        0.0618
     10 H          -0.5708   -1.1108    0.0005 H       1  LIG1        0.0618
     11 H           2.1896    3.5590   -0.0012 H       1  LIG1        0.0624
     12 C           4.2297    2.3762   -0.0216 C.ar    1  LIG1        0.2230
     13 C           3.4844    1.1831   -0.0005 C.ar    1  LIG1        0.0449
     14 C           4.1715   -0.0320    0.0205 C.ar    1  LIG1       -0.0295
     15 C           5.5674   -0.0147    0.0195 C.ar    1  LIG1        0.0786
     16 C           6.2235    1.2297   -0.0026 C.ar    1  LIG1        0.0949
     17 N           5.5764    2.4113   -0.0228 N.ar    1  LIG1       -0.2110
     18 H           3.6233   -0.9846    0.0362 H       1  LIG1        0.0639
     19 O           3.6351    3.5321   -0.0414 O.3     1  LIG1       -0.4792
     20 C           4.6156    4.5731   -0.0488 C.3     1  LIG1        0.0804
     21 H           4.1258    5.5243   -0.0653 H       1  LIG1        0.0660
     22 H           5.2211    4.4989    0.8303 H       1  LIG1        0.0660
     23 H           5.2335    4.4750   -0.9168 H       1  LIG1        0.0660
     24 N           6.8580   -2.0929    0.0549 N.1     1  LIG1       -0.1908
     25 C           6.2531   -1.1189    0.0383 C.1     1  LIG1        0.1013
     26 C           8.1685    2.5470   -0.0052 C.ar    1  LIG1        0.1499
     27 C           7.5217    1.2976   -0.0044 C.ar    1  LIG1        0.0379
     28 C           8.3045    0.1416   -0.0052 C.ar    1  LIG1       -0.0449
     29 C           9.6944    0.2713   -0.0069 C.ar    1  LIG1       -0.0240
     30 C          10.2482    1.5647   -0.0078 C.ar    1  LIG1        0.0735
     31 N           9.5080    2.6905   -0.0068 N.ar    1  LIG1       -0.2357
     32 H           7.8348   -0.8522   -0.0056 H       1  LIG1        0.0628
     33 N           6.8780    4.6256   -0.0037 N.1     1  LIG1       -0.1893
     34 C           7.4828    3.6515   -0.0044 C.1     1  LIG1        0.1198
     35 C          10.4671   -0.7745   -0.0079 C.3     1  LIG1       -0.0377
     36 H          11.3819   -0.5426    0.4963 H       1  LIG1        0.0278
     37 H          10.6787   -1.0608   -1.0170 H       1  LIG1        0.0278
     38 H           9.9766   -1.5809    0.4962 H       1  LIG1        0.0278
     39 C          12.0808    3.0344   -0.0100 C.3     1  LIG1        0.1151
     40 C          11.5367    1.7369   -0.0093 C.2     1  LIG1        0.0043
     41 C          12.4101    0.6478   -0.0100 C.2     1  LIG1       -0.0722
     42 C          13.7850    0.8890   -0.0115 C.3     1  LIG1       -0.0086
     43 C          14.2328    2.2227   -0.0123 C.2     1  LIG1        0.1134
     44 N          13.4043    3.2853   -0.0114 N.2     1  LIG1       -0.2657
     45 H          12.0219   -0.3806   -0.0105 H       1  LIG1        0.0579
     46 C          11.3081    4.0802   -0.0093 C.3     1  LIG1       -0.0329
     47 H          10.3937    3.8478    0.4953 H       1  LIG1        0.0257
     48 H          11.0958    4.3675   -1.0179 H       1  LIG1        0.0257
     49 H          11.7991    4.8860    0.4953 H       1  LIG1        0.0257
     50 H          14.6392   -0.0910   -0.0124 H       1  LIG1        0.0355
     51 C          15.5033    2.4982   -0.0136 C.ar    1  LIG1        0.1107
     52 C          16.5844    1.6741   -0.0148 C.ar    1  LIG1        0.1648
     53 C          17.7531    2.5018   -0.0149 C.ar    1  LIG1        0.1222
     54 C          17.3347    3.7952   -0.0154 C.ar    1  LIG1        0.1041
     55 N          15.9580    3.7976   -0.0141 N.ar    1  LIG1       -0.3465
     56 H          15.3835    4.6088   -0.0143 H       1  LIG1        0.1662
     57 O          16.5583    0.3743   -0.0145 O.3     1  LIG1       -0.4916
     58 C          15.2009   -0.0757   -0.0144 C.3     1  LIG1        0.0789
     59 H          15.1799   -1.1455   -0.0142 H       1  LIG1        0.0660
     60 H          14.7036    0.2909    0.8593 H       1  LIG1        0.0660
     61 H          14.7036    0.2907   -0.8880 H       1  LIG1        0.0660
     62 N          20.0768    1.7363   -0.0149 N.1     1  LIG1       -0.1907
     63 C          18.9878    2.0950   -0.0149 C.1     1  LIG1        0.1051
     64 C          18.0162    4.9022   -0.0158 C.ar    1  LIG1        0.1573
     65 C          19.3556    5.2324   -0.0160 C.ar    1  LIG1        0.0129
     66 C          19.4262    6.6788   -0.0164 C.ar    1  LIG1        0.0754
     67 C          18.1247    7.1366   -0.0164 C.ar    1  LIG1        0.1692
     68 O          17.2371    6.0601   -0.0161 O.2     1  LIG1       -0.4502
     69 C          20.3745    4.4245   -0.0159 C.3     1  LIG1       -0.0349
     70 H          21.1967    4.8875    0.4886 H       1  LIG1        0.0279
     71 H          20.6541    4.2029   -1.0247 H       1  LIG1        0.0279
     72 H          20.1110    3.5184    0.4885 H       1  LIG1        0.0279
     73 C          20.5183    7.3840   -0.0167 C.1     1  LIG1       -0.0655
     74 C          21.5274    8.0356   -0.0170 C.1     1  LIG1       -0.1138
     75 H          22.4263    8.6160   -0.0173 H       1  LIG1        0.1232
     76 C          17.5536    8.3045   -0.0166 C.ar    1  LIG1        0.1061
     77 C          18.0954    9.5512   -0.0005 C.ar    1  LIG1        0.0716
     78 C          17.0126   10.4882   -0.0084 C.ar    1  LIG1        0.1013
     79 C          15.8567    9.7730   -0.0307 C.ar    1  LIG1        0.1039
     80 N          16.1834    8.4356   -0.0354 N.ar    1  LIG1       -0.3468
     81 H          15.5331    7.6840   -0.0506 H       1  LIG1        0.1662
     82 N          19.3636    9.8363    0.0199 N.pl3   1  LIG1       -0.3552
     83 H          19.8751    9.1144   -0.4462 H       1  LIG1        0.1424
     84 H          19.5170   10.7076   -0.4462 H       1  LIG1        0.1424
     85 N          17.2005   12.9275    0.0133 N.1     1  LIG1       -0.1907
     86 C          17.1124   11.7843    0.0032 C.1     1  LIG1        0.1033
     87 C          14.6190   10.1703   -0.0454 C.ar    1  LIG1        0.1739
     88 C          13.9783   11.3920   -0.0417 C.ar    1  LIG1        0.0881
     89 C          12.5572   11.1151   -0.0666 C.ar    1  LIG1        0.0837
     90 C          12.4237    9.7419   -0.0841 C.ar    1  LIG1        0.1099
     91 O          13.6811    9.1372   -0.0715 O.2     1  LIG1       -0.4583
     92 H          11.4263    8.9085   -0.1087 H       1  LIG1        0.1043
     93 N          14.5190   12.5740   -0.0201 N.pl3   1  LIG1       -0.3540
     94 H          15.4034   12.5445   -0.4859 H       1  LIG1        0.1425
     95 H          13.9185   13.2238   -0.4859 H       1  LIG1        0.1425
     96 C          11.6114   12.0070   -0.0713 C.1     1  LIG1       -0.0646
     97 C          10.7376   12.8312   -0.0756 C.1     1  LIG1       -0.1138
     98 H           9.9592   13.5654   -0.0794 H       1  LIG1        0.1232
@<TRIPOS>BOND
     1    71    69    1
     2    48    46    1
     3    37    35    1
     4    23    20    1
     5    61    58    1
     6    95    93    1
     7    94    93    1
     8    84    82    1
     9    83    82    1
    10    92    90    1
    11    90    91   ar
    12    90    89   ar
    13    98    97    1
    14    97    96    3
    15    91    87   ar
    16    96    89    1
    17    89    88   ar
    18    21    20    1
    19    81    80    1
    20    20    19    1
    21    20    22    1
    22    87    88   ar
    23    87    79    1
    24    88    93    1
    25    19    12    1
    26    80    79   ar
    27    80    76   ar
    28    79    78   ar
    29    17    12   ar
    30    17    16   ar
    31    12    13   ar
    32    75    74    1
    33    74    73    3
    34    73    66    1
    35    76    67    1
    36    76    77   ar
    37    67    66   ar
    38    67    68   ar
    39    66    65   ar
    40    68    64   ar
    41    65    69    1
    42    65    64   ar
    43    69    72    1
    44    69    70    1
    45    64    54    1
    46    54    53   ar
    47    54    55   ar
    48    62    63    3
    49    63    53    1
    50    53    52   ar
    51    52    57    1
    52    52    51   ar
    53    57    58    1
    54    58    59    1
    55    58    60    1
    56    56    55    1
    57    55    51   ar
    58    51    43    1
    59    50    42    1
    60    43    44    2
    61    42    41    1
    62    44    39    1
    63    45    41    1
    64    41    40    2
    65    39    40    1
    66    39    46    1
    67    40    30    1
    68    46    49    1
    69    46    47    1
    70    78    77   ar
    71    78    86    1
    72    35    29    1
    73    35    38    1
    74    35    36    1
    75    30    29   ar
    76    30    31   ar
    77    29    28   ar
    78    31    26   ar
    79    32    28    1
    80    28    27   ar
    81    26    27   ar
    82    26    34    1
    83    27    16    1
    84    34    33    3
    85    16    15   ar
    86    11     7    1
    87     7     6   ar
    88     7     4   ar
    89    13     4    1
    90    13    14   ar
    91    77    82    1
    92     6     8    1
    93     6     3   ar
    94     4     2   ar
    95     3     1   ar
    96     3     9    1
    97     1     2   ar
    98     1    10    1
    99     2     5    1
   100    86    85    3
   101    15    14   ar
   102    15    25    1
   103    14    18    1
   104    25    24    3
