@<TRIPOS>MOLECULE
mol_data/noopt/geoms/mol2/4ad12lf-13dh6fl-6hl-4hf-4ii6fd-.out
 105 109 0 0 0
SMALL
GASTEIGER

@<TRIPOS>ATOM
      1 C           0.0509    0.0309    0.0002 C.ar    1  LIG1       -0.0533
      2 C           1.4592    0.0309    0.0002 C.ar    1  LIG1       -0.0051
      3 C          -0.6045    1.2792    0.0002 C.ar    1  LIG1       -0.0599
      4 C           2.1849    1.2200   -0.0004 C.ar    1  LIG1        0.0463
      5 H           1.9850   -0.9213    0.0004 H       1  LIG1        0.0194
      6 C           0.1195    2.4666   -0.0004 C.ar    1  LIG1       -0.0436
      7 C           1.5181    2.4458   -0.0008 C.ar    1  LIG1        0.0631
      8 H          -0.4090    3.4165   -0.0003 H       1  LIG1        0.0631
      9 H          -1.9035    1.3287    0.0016 H       1  LIG1        0.0618
     10 H          -0.5708   -1.1108    0.0005 H       1  LIG1        0.0624
     11 N           2.7818    4.5408   -0.0016 N.1     1  LIG1       -0.1908
     12 C           2.1896    3.5590   -0.0012 C.1     1  LIG1        0.0999
     13 C           3.4844    1.1831   -0.0005 C.ar    1  LIG1        0.1878
     14 C           4.4399    0.1882    0.0142 C.ar    1  LIG1        0.2662
     15 C           5.7279    0.8500    0.0034 C.ar    1  LIG1        0.2127
     16 C           5.4738    2.2059   -0.0172 C.ar    1  LIG1        0.1983
     17 O           4.0977    2.4365   -0.0202 O.2     1  LIG1       -0.4455
     18 O           4.2495   -1.0976    0.0341 O.3     1  LIG1       -0.2799
     19 C           2.8462   -1.3723    0.0413 C.3     2  LIG2       -0.0776
     20 H           2.6899   -2.4307    0.0574 H       1  LIG1        0.0194
     21 H           2.4011   -0.9328    0.9095 H       1  LIG1        0.0194
     22 H           2.3973   -0.9589   -0.8376 H       1  LIG1        0.0194
     23 O           6.8846    0.2566    0.0119 O.3     1  LIG1       -0.5006
     24 H           7.5827    0.9156    0.0140 H       1  LIG1        0.2924
     25 C           6.1999    3.2842   -0.0341 C.ar    1  LIG1        0.1058
     26 C           7.5505    3.4382   -0.0293 C.ar    1  LIG1        0.1013
     27 C           7.8207    4.8442   -0.0541 C.ar    1  LIG1        0.0687
     28 C           6.6234    5.4876   -0.0747 C.ar    1  LIG1        0.0745
     29 N           5.6284    4.5363   -0.0621 N.ar    1  LIG1       -0.3490
     30 H           4.6522    4.7237   -0.0723 H       1  LIG1        0.1661
     31 N           9.2085    1.6396    0.0164 N.1     1  LIG1       -0.1907
     32 C           8.4315    2.4825   -0.0050 C.1     1  LIG1        0.1033
     33 N           8.9933    5.4056   -0.0569 N.pl3   1  LIG1       -0.3553
     34 H           9.6456    4.8127   -0.5290 H       1  LIG1        0.1424
     35 H           8.9404    6.2855   -0.5290 H       1  LIG1        0.1424
     36 C           5.0122    7.1960   -0.1362 C.ar    1  LIG1        0.2225
     37 C           6.3487    6.7580   -0.1009 C.ar    1  LIG1        0.0650
     38 C           7.3643    7.7159   -0.0944 C.ar    1  LIG1       -0.0035
     39 C           7.0140    9.0668   -0.1233 C.ar    1  LIG1        0.1469
     40 C           5.6490    9.4060   -0.1579 C.ar    1  LIG1        0.1197
     41 N           4.6564    8.4950   -0.1644 N.ar    1  LIG1       -0.2087
     42 H           8.4202    7.4116   -0.0681 H       1  LIG1        0.0663
     43 O           4.0319    6.3422   -0.1434 O.3     1  LIG1       -0.4919
     44 H           4.3846    5.4493   -0.1452 H       1  LIG1        0.2937
     45 O           7.9224    9.9969   -0.1189 O.3     1  LIG1       -0.4929
     46 C           9.2202    9.3965   -0.1173 C.3     1  LIG1        0.0789
     47 H           9.9675   10.1623   -0.1139 H       1  LIG1        0.0660
     48 H           9.3302    8.7869    0.7552 H       1  LIG1        0.0660
     49 H           9.3342    8.7910   -0.9921 H       1  LIG1        0.0660
     50 C           3.9055   10.9790   -0.2218 C.ar    1  LIG1        0.1264
     51 C           5.2729   10.6501   -0.1856 C.ar    1  LIG1        0.0470
     52 C           6.2080   11.6867   -0.1800 C.ar    1  LIG1       -0.0055
     53 C           5.7501   13.0050   -0.2106 C.ar    1  LIG1        0.1435
     54 C           4.3622   13.2331   -0.2459 C.ar    1  LIG1        0.1163
     55 N           3.4462   12.2451   -0.2516 N.ar    1  LIG1       -0.2280
     56 H           7.2850   11.4685   -0.1531 H       1  LIG1        0.0662
     57 N           2.9971   10.0490   -0.2283 N.pl3   1  LIG1       -0.3426
     58 H           2.1818   10.3828   -0.7014 H       1  LIG1        0.1437
     59 H           3.3500    9.2418   -0.7014 H       1  LIG1        0.1437
     60 O           6.5805   14.0052   -0.2070 O.3     1  LIG1       -0.5046
     61 C           7.9225   13.5113   -0.2058 C.3     3  LIG3       -0.0681
     62 H           8.6057   14.3349   -0.2030 H       2  LIG2        0.0227
     63 H           8.0816   12.9130    0.6670 H       2  LIG2        0.0227
     64 H           8.0845   12.9165   -1.0803 H       2  LIG2        0.0227
     65 C           4.7679   15.5437   -0.2689 C.ar    1  LIG1        0.0544
     66 C           4.2037   16.8337   -0.3000 C.ar    1  LIG1       -0.0275
     67 C           3.8871   14.4428   -0.2752 C.ar    1  LIG1        0.0297
     68 C           2.8238   17.0215   -0.3364 C.ar    1  LIG1        0.0256
     69 H           4.8651   17.6971   -0.2956 H       1  LIG1        0.0644
     70 C           2.5095   14.6298   -0.3115 C.ar    1  LIG1       -0.0085
     71 C           1.9682   15.9192   -0.3424 C.ar    1  LIG1        0.1253
     72 H           1.8512   13.7648   -0.3155 H       1  LIG1        0.0661
     73 N           6.0627   15.4321   -0.2359 N.pl3   1  LIG1       -0.2659
     74 H           6.3364   14.5889   -0.6987 H       1  LIG1        0.2922
     75 H           6.4767   16.2158   -0.6987 H       1  LIG1        0.1699
     76 O           0.6796   16.0878   -0.3761 O.3     1  LIG1       -0.5061
     77 H           0.2446   15.2321   -0.3844 H       1  LIG1        0.2922
     78 C           3.2074   19.3356   -0.3790 C.ar    1  LIG1       -0.0420
     79 C           2.6307   20.6201   -0.4080 C.ar    1  LIG1       -0.0502
     80 C           2.3370   18.2266   -0.3645 C.ar    1  LIG1       -0.0111
     81 C           1.2487   20.7949   -0.4226 C.ar    1  LIG1       -0.0123
     82 H           3.2840   21.4897   -0.4194 H       1  LIG1        0.0627
     83 C           0.9573   18.4005   -0.3791 C.ar    1  LIG1       -0.0499
     84 C           0.4035   19.6847   -0.4083 C.ar    1  LIG1       -0.0387
     85 H           0.3072   17.5294   -0.3674 H       1  LIG1        0.0627
     86 C           4.5038   19.2362   -0.3668 C.3     1  LIG1       -0.0391
     87 H           4.9216   20.0803    0.1410 H       1  LIG1        0.0278
     88 H           4.8689   19.2082   -1.3723 H       1  LIG1        0.0278
     89 H           4.7879   18.3381    0.1409 H       1  LIG1        0.0278
     90 C          -0.8873   19.8412   -0.4217 C.3     1  LIG1       -0.0231
     91 H          -1.3517   19.0174    0.0791 H       1  LIG1        0.0316
     92 H          -1.2311   19.8828   -1.4341 H       1  LIG1        0.0316
     93 H          -1.1413   20.7521    0.0790 H       0  HOH0        0.2052
     94 C          -0.6433   22.1859   -0.4852 C.ar    1  LIG1        0.0975
     95 C           0.7502   21.9952   -0.4495 C.ar    1  LIG1        0.0111
     96 C           1.5771   23.1201   -0.4434 C.ar    1  LIG1       -0.0331
     97 C           0.9897   24.3860   -0.4731 C.ar    1  LIG1        0.0704
     98 C          -0.4141   24.4744   -0.5080 C.ar    1  LIG1        0.0457
     99 N          -1.2268   23.3998   -0.5141 N.ar    1  LIG1       -0.2515
    100 H           2.6705   23.0105   -0.4169 H       1  LIG1        0.0638
    101 H          -1.0076   25.6306   -0.5364 H       1  LIG1        0.0843
    102 O          -1.4542   21.1698   -0.4921 O.3     4  HOH4       -0.4105
    103 H          -0.9467   20.3549   -0.4938 H       0  HOH0        0.2052
    104 N           2.3567   26.4151   -0.4655 N.1     1  LIG1       -0.1908
    105 C           1.7161   25.4642   -0.4690 C.1     1  LIG1        0.1007
@<TRIPOS>BOND
     1    92    90    1
     2    88    86    1
     3    64    61    1
     4    49    46    1
     5    22    19    1
     6    59    57    1
     7    58    57    1
     8    75    73    1
     9    74    60    1
    10   101    98    1
    11    35    33    1
    12    34    33    1
    13    99    98   ar
    14    99    94   ar
    15    98    97   ar
    16   103   102    1
    17   102    93    1
    18    94    95   ar
    19    97   105    1
    20    97    96   ar
    21   105   104    3
    22    95    96   ar
    23    95    81    1
    24    96   100    1
    25    81    84   ar
    26    81    79   ar
    27    90    84    1
    28    90    91    1
    29    82    79    1
    30    84    83   ar
    31    79    78   ar
    32    77    76    1
    33    83    85    1
    34    83    80   ar
    35    78    86    1
    36    78    80   ar
    37    76    71    1
    38    86    89    1
    39    86    87    1
    40    80    68    1
    41    71    68   ar
    42    71    70   ar
    43    68    66   ar
    44    72    70    1
    45    70    67   ar
    46    66    69    1
    47    66    65   ar
    48    67    65   ar
    49    67    54    1
    50    65    73    1
    51    55    54   ar
    52    55    50   ar
    53    54    53   ar
    54    57    50    1
    55    50    51   ar
    56    53    60    1
    57    53    52   ar
    58    61    62    1
    59    61    63    1
    60    51    52   ar
    61    51    40    1
    62    52    56    1
    63    41    40   ar
    64    41    36   ar
    65    40    39   ar
    66    44    43    1
    67    43    36    1
    68    36    37   ar
    69    39    45    1
    70    39    38   ar
    71    45    46    1
    72    46    47    1
    73    46    48    1
    74    37    38   ar
    75    37    28    1
    76    38    42    1
    77    28    29   ar
    78    28    27   ar
    79    30    29    1
    80    29    25   ar
    81    33    27    1
    82    27    26   ar
    83    25    26   ar
    84    25    16    1
    85    26    32    1
    86    17    16   ar
    87    17    13   ar
    88    16    15   ar
    89    32    31    3
    90    11    12    3
    91    12     7    1
    92     7     6   ar
    93     7     4   ar
    94    13     4    1
    95    13    14   ar
    96     6     8    1
    97     6     3   ar
    98     4     2   ar
    99     3     1   ar
   100     3     9    1
   101     2     1   ar
   102     1    10    1
   103     5    19    1
   104    15    23    1
   105    15    14   ar
   106    23    24    1
   107    14    18    1
   108    19    20    1
   109    19    21    1
