@<TRIPOS>MOLECULE
mol_data/noopt/geoms/mol2/4ad6la(250)4ii(330)13he(180).out
 54 57 0 0 0
SMALL
GASTEIGER

@<TRIPOS>ATOM
      1 C           0.0509    0.0309    0.0002 C.ar    1  LIG1       -0.0611
      2 C           1.4592    0.0309    0.0002 C.ar    1  LIG1       -0.0526
      3 C          -0.6045    1.2792    0.0002 C.ar    1  LIG1       -0.0605
      4 C           2.1849    1.2200   -0.0004 C.ar    1  LIG1        0.0046
      5 H           1.9850   -0.9213    0.0004 H       1  LIG1        0.0624
      6 C           0.1195    2.4666   -0.0004 C.ar    1  LIG1       -0.0438
      7 C           1.5181    2.4458   -0.0008 C.ar    1  LIG1        0.0596
      8 H          -0.4090    3.4165   -0.0003 H       1  LIG1        0.0631
      9 H          -1.9035    1.3287    0.0016 H       1  LIG1        0.0618
     10 H          -0.5708   -1.1108    0.0005 H       1  LIG1        0.0618
     11 N           2.7818    4.5408   -0.0016 N.1     1  LIG1       -0.1909
     12 C           2.1896    3.5590   -0.0012 C.1     1  LIG1        0.0998
     13 C           4.1835    0.7474    1.1400 C.ar    1  LIG1        0.2230
     14 C           3.4844    1.1831   -0.0005 C.ar    1  LIG1        0.0449
     15 C           4.2170    1.5715   -1.1237 C.ar    1  LIG1       -0.0469
     16 C           5.6106    1.5123   -1.0703 C.ar    1  LIG1       -0.0349
     17 C           6.2188    1.0627    0.1161 C.ar    1  LIG1        0.0751
     18 N           5.5274    0.6840    1.2088 N.ar    1  LIG1       -0.2124
     19 H           3.7056    1.9185   -2.0327 H       1  LIG1        0.0626
     20 O           3.5457    0.3756    2.2100 O.3     1  LIG1       -0.4792
     21 C           2.6326    1.4036    2.6028 C.3     1  LIG1        0.0804
     22 H           2.1077    1.0971    3.4835 H       1  LIG1        0.0660
     23 H           3.1746    2.3036    2.8058 H       1  LIG1        0.0660
     24 H           1.9322    1.5794    1.8133 H       1  LIG1        0.0660
     25 H           6.3377    1.8630   -2.0894 H       1  LIG1        0.0639
     26 C           8.1989   -0.1095   -0.3414 C.ar    1  LIG1       -0.0406
     27 C           9.6004   -0.1425   -0.2071 C.ar    1  LIG1       -0.0488
     28 C           7.5129    0.9899    0.2143 C.ar    1  LIG1        0.0037
     29 C          10.2905    0.8732    0.4506 C.ar    1  LIG1        0.0033
     30 H          10.1493   -0.9818   -0.6283 H       1  LIG1        0.0627
     31 C           8.2014    2.0042    0.8709 C.ar    1  LIG1       -0.0488
     32 C           9.5939    1.9535    0.9937 C.ar    1  LIG1       -0.0407
     33 H           7.6499    2.8414    1.2910 H       1  LIG1        0.0627
     34 C           7.6108   -1.0866   -0.9661 C.3     1  LIG1       -0.0391
     35 H           8.0730   -2.0127   -0.6950 H       1  LIG1        0.0278
     36 H           7.6994   -0.9394   -2.0223 H       1  LIG1        0.0278
     37 H           6.5760   -1.1116   -0.6951 H       1  LIG1        0.0278
     38 C          10.2322    2.9047    1.6089 C.3     1  LIG1       -0.0391
     39 H           9.5489    3.4543    2.2221 H       1  LIG1        0.0278
     40 H          10.6733    3.5620    0.8889 H       1  LIG1        0.0278
     41 H          10.9998    2.4806    2.2220 H       1  LIG1        0.0278
     42 C          11.5847    0.8107    0.5562 C.ar    1  LIG1        0.0689
     43 C          12.5126    1.8016    0.6284 C.ar    1  LIG1        0.0658
     44 C          13.7972    1.1777    0.7340 C.ar    1  LIG1        0.0632
     45 C          13.5977   -0.1670    0.7235 C.ar    1  LIG1        0.0195
     46 N          12.2446   -0.3960    0.6143 N.ar    1  LIG1       -0.3580
     47 H          11.8126   -1.2907    0.5831 H       1  LIG1        0.1654
     48 H          14.4491   -1.1467    0.7960 H       1  LIG1        0.0820
     49 N          12.2739    3.0793    0.6040 N.pl3   1  LIG1       -0.3554
     50 H          13.0170    3.5481    0.1264 H       1  LIG1        0.1424
     51 H          11.4118    3.2483    0.1264 H       1  LIG1        0.1424
     52 C          14.9446    1.7822    0.8240 C.1     1  LIG1       -0.0663
     53 C          16.0048    2.3407    0.9072 C.1     1  LIG1       -0.1138
     54 H          16.9491    2.8382    0.9813 H       1  LIG1        0.1232
@<TRIPOS>BOND
     1    25    16    1
     2    19    15    1
     3    36    34    1
     4    15    16   ar
     5    15    14   ar
     6    16    17   ar
     7    34    37    1
     8    34    35    1
     9    34    26    1
    10    30    27    1
    11    26    27   ar
    12    26    28   ar
    13    27    29   ar
    14    11    12    3
    15    12     7    1
    16     7     6   ar
    17     7     4   ar
    18    14     4    1
    19    14    13   ar
    20     6     8    1
    21     6     3   ar
    22     4     2   ar
    23     1     3   ar
    24     1     2   ar
    25     1    10    1
    26     3     9    1
    27     2     5    1
    28    17    28    1
    29    17    18   ar
    30    51    49    1
    31    50    49    1
    32    28    31   ar
    33    29    42    1
    34    29    32   ar
    35    42    46   ar
    36    42    43   ar
    37    47    46    1
    38    49    43    1
    39    46    45   ar
    40    43    44   ar
    41    45    44   ar
    42    45    48    1
    43    44    52    1
    44    52    53    3
    45    31    32   ar
    46    31    33    1
    47    40    38    1
    48    53    54    1
    49    32    38    1
    50    13    18   ar
    51    13    20    1
    52    38    41    1
    53    38    39    1
    54    24    21    1
    55    20    21    1
    56    21    23    1
    57    21    22    1
