@<TRIPOS>MOLECULE
mol_data/noopt/geoms/mol2/4ae12ed(300)4lf(310)4ai(220).out
 52 51 0 0 0
SMALL
GASTEIGER

@<TRIPOS>ATOM
      1 C           0.0509    0.0309    0.0002 C.ar    1  LIG1       -0.0610
      2 C           1.4592    0.0309    0.0002 C.ar    1  LIG1       -0.0499
      3 C          -0.6045    1.2792    0.0002 C.ar    1  LIG1       -0.0606
      4 C           2.1849    1.2200   -0.0004 C.ar    1  LIG1        0.0333
      5 H           1.9850   -0.9213    0.0004 H       1  LIG1        0.0625
      6 C           0.1195    2.4666   -0.0004 C.ar    1  LIG1       -0.0456
      7 C           1.5181    2.4458   -0.0008 C.ar    1  LIG1        0.0353
      8 H          -0.4090    3.4165   -0.0003 H       1  LIG1        0.0630
      9 H          -1.9035    1.3287    0.0016 H       1  LIG1        0.0618
     10 H          -0.5708   -1.1108    0.0005 H       1  LIG1        0.0618
     11 C           2.1896    3.5590   -0.0012 C.1     1  LIG1       -0.0690
     12 C           2.8100    4.5875   -0.0016 C.1     1  LIG1       -0.1139
     13 H           3.3627    5.5037   -0.0019 H       1  LIG1        0.1232
     14 C           3.4844    1.1831   -0.0005 C.2     1  LIG1        0.1471
     15 C           4.4522    0.6230   -0.8084 C.2     1  LIG1        0.0858
     16 C           5.7313    0.9710   -0.2256 C.3     2  LIG2        0.0000
     17 C           5.4601    1.7211    0.9002 C.3     1  LIG1        0.2347
     18 O           4.0816    1.8658    1.0601 O.2     1  LIG1       -0.4699
     19 C           4.2782   -0.0828   -1.8861 C.1     1  LIG1       -0.0646
     20 C           4.1174   -0.7350   -2.8820 C.1     1  LIG1       -0.1138
     21 H           3.9742   -1.3159   -3.7690 H       1  LIG1        0.1232
     22 N           7.9216    0.3283   -1.1062 N.2     2  LIG2       -0.1561
     23 C           6.8951    0.6295   -0.6935 C.2     2  LIG2        0.0697
     24 C           7.5663    2.4327    1.6497 C.ar    1  LIG1        0.1870
     25 C           8.2931    3.0724    2.6724 C.ar    1  LIG1       -0.0033
     26 C           6.1722    2.3057    1.8174 C.ar    1  LIG1        0.0546
     27 C           7.6617    3.5652    3.8122 C.ar    1  LIG1        0.0272
     28 H           9.3699    3.1809    2.5633 H       1  LIG1        0.0663
     29 C           5.5414    2.7974    2.9551 C.ar    1  LIG1       -0.0087
     30 C           6.2807    3.4302    3.9598 C.ar    1  LIG1        0.1252
     31 H           4.4652    2.6871    3.0611 H       1  LIG1        0.0659
     32 O           8.2112    1.9939    0.6097 O.3     1  LIG1       -0.2875
     33 C           7.6896    0.7184    0.2278 C.3     3  LIG3       -0.0531
     34 H           8.2205    0.3577   -0.6283 H       3  LIG3        0.0265
     35 H           7.8069    0.0282    1.0371 H       3  LIG3        0.0265
     36 H           6.6511    0.8147   -0.0111 H       2  LIG2        0.0864
     37 O           5.6855    3.8878    5.0212 O.3     1  LIG1       -0.5061
     38 H           4.9873    3.2832    5.2828 H       1  LIG1        0.2922
     39 C           8.5726    5.5438    4.6836 C.ar    1  LIG1       -0.0539
     40 C           9.3411    6.1299    5.7078 C.ar    1  LIG1       -0.0609
     41 C           8.3635    4.1505    4.7367 C.ar    1  LIG1       -0.0140
     42 C           9.8780    5.3647    6.7407 C.ar    1  LIG1       -0.0588
     43 H           9.5150    7.2035    5.6860 H       1  LIG1        0.0618
     44 C           8.8992    3.3861    5.7676 C.ar    1  LIG1       -0.0510
     45 C           9.6596    3.9870    6.7762 C.ar    1  LIG1       -0.0499
     46 H           8.7239    2.3135    5.7864 H       1  LIG1        0.0626
     47 H          10.5826    5.9388    7.6703 H       1  LIG1        0.0620
     48 H           8.0979    6.3097    3.7466 H       1  LIG1        0.0624
     49 C          10.1582    3.2672    7.7376 C.3     1  LIG1       -0.0397
     50 H          10.8008    3.8737    8.3409 H       1  LIG1        0.0278
     51 H          10.7197    2.4566    7.3219 H       1  LIG1        0.0278
     52 H           9.3644    2.8788    8.3408 H       1  LIG1        0.0278
@<TRIPOS>BOND
     1    21    20    1
     2    20    19    3
     3    19    15    1
     4    22    23    2
     5    15    14    2
     6    23    36    1
     7    34    33    1
     8    13    12    1
     9    12    11    3
    10    11     7    1
    11     7     6   ar
    12     7     4   ar
    13    14     4    1
    14    14    18    1
    15     6     8    1
    16     6     3   ar
    17     4     2   ar
    18     2     1   ar
    19     2     5    1
    20     1     3   ar
    21     1    10    1
    22     3     9    1
    23    33    35    1
    24    32    24    1
    25    17    18    1
    26    17    26    1
    27    24    26   ar
    28    24    25   ar
    29    26    29   ar
    30    28    25    1
    31    25    27   ar
    32    29    31    1
    33    29    30   ar
    34    48    39    1
    35    27    30   ar
    36    27    41    1
    37    30    37    1
    38    39    41   ar
    39    39    40   ar
    40    41    44   ar
    41    37    38    1
    42    43    40    1
    43    40    42   ar
    44    44    46    1
    45    44    45   ar
    46    42    45   ar
    47    42    47    1
    48    45    49    1
    49    51    49    1
    50    49    52    1
    51    49    50    1
