@<TRIPOS>MOLECULE
mol_data/noopt/geoms/mol2/4ae12di(110)4il(160)6ll(190).out
 59 60 0 0 0
SMALL
GASTEIGER

@<TRIPOS>ATOM
      1 C           0.0509    0.0309    0.0002 C.ar    1  LIG1       -0.0610
      2 C           1.4592    0.0309    0.0002 C.ar    1  LIG1       -0.0499
      3 C          -0.6045    1.2792    0.0002 C.ar    1  LIG1       -0.0606
      4 C           2.1849    1.2200   -0.0004 C.ar    1  LIG1        0.0339
      5 H           1.9850   -0.9213    0.0004 H       1  LIG1        0.0625
      6 C           0.1195    2.4666   -0.0004 C.ar    1  LIG1       -0.0456
      7 C           1.5181    2.4458   -0.0008 C.ar    1  LIG1        0.0354
      8 H          -0.4090    3.4165   -0.0003 H       1  LIG1        0.0630
      9 H          -1.9035    1.3287    0.0016 H       1  LIG1        0.0618
     10 H          -0.5708   -1.1108    0.0005 H       1  LIG1        0.0618
     11 C           2.1896    3.5590   -0.0012 C.1     1  LIG1       -0.0690
     12 C           2.8100    4.5875   -0.0016 C.1     1  LIG1       -0.1139
     13 H           3.3627    5.5037   -0.0019 H       1  LIG1        0.1232
     14 C           3.4844    1.1831   -0.0005 C.ar    1  LIG1        0.1544
     15 C           4.4780    1.5262    0.8928 C.ar    1  LIG1        0.1009
     16 C           5.7385    1.2225    0.2481 C.ar    1  LIG1        0.0133
     17 C           5.4314    0.7135   -0.9970 C.ar    1  LIG1        0.1401
     18 O           4.0477    0.6793   -1.1737 O.2     1  LIG1       -0.4532
     19 N           4.2153    2.4664    3.1363 N.1     1  LIG1       -0.1907
     20 C           4.3384    2.0258    2.0849 C.1     1  LIG1        0.1032
     21 C           6.9175    1.4041    0.7655 C.3     1  LIG1       -0.0349
     22 H           6.9095    2.2868    1.3702 H       1  LIG1        0.0279
     23 H           7.6377    1.5151   -0.0181 H       1  LIG1        0.0279
     24 H           7.1755    0.5599    1.3701 H       1  LIG1        0.0279
     25 C           7.3801    0.8226   -2.2987 C.ar    1  LIG1       -0.0392
     26 C           8.0793    0.3116   -3.4093 C.ar    1  LIG1       -0.0497
     27 C           6.1142    0.2725   -2.0115 C.ar    1  LIG1        0.0211
     28 C           7.5438   -0.7026   -4.2000 C.ar    1  LIG1       -0.0047
     29 H           9.0577    0.7220   -3.6489 H       1  LIG1        0.0627
     30 C           5.5791   -0.7400   -2.8005 C.ar    1  LIG1       -0.0425
     31 C           6.2893   -1.2346   -3.8994 C.ar    1  LIG1       -0.0087
     32 H           4.6009   -1.1477   -2.5586 H       1  LIG1        0.0631
     33 C           7.9318    1.7692   -1.5984 C.3     1  LIG1       -0.0390
     34 H           7.1915    2.2340   -0.9813 H       1  LIG1        0.0278
     35 H           8.3566    2.4983   -2.2563 H       1  LIG1        0.0278
     36 H           8.7012    1.3542   -0.9814 H       1  LIG1        0.0278
     37 O           5.7840   -2.1812   -4.6335 O.3     2  HOH2       -0.2528
     38 C           4.4093   -1.8938   -4.9031 C.3     3  LIG3       -0.0681
     39 H           3.9939   -2.6730   -5.5074 H       1  LIG1        0.0227
     40 H           3.8703   -1.8320   -3.9808 H       1  LIG1        0.0227
     41 H           4.3351   -0.9614   -5.4227 H       1  LIG1        0.0227
     42 C           8.0592   -2.4825   -5.6439 C.ar    1  LIG1        0.2230
     43 C           8.2167   -1.1509   -5.2179 C.ar    1  LIG1        0.0477
     44 C           9.1075   -0.3299   -5.9119 C.ar    1  LIG1       -0.0056
     45 C           9.8048   -0.8617   -6.9979 C.ar    1  LIG1        0.1389
     46 C           9.5794   -2.2058   -7.3476 C.ar    1  LIG1        0.0730
     47 N           8.7237   -3.0119   -6.6893 N.ar    1  LIG1       -0.2172
     48 H           9.2577    0.7157   -5.6077 H       1  LIG1        0.0662
     49 H          10.2047   -2.7463   -8.3510 H       1  LIG1        0.0868
     50 O           7.2416   -3.2854   -5.0299 O.3     1  LIG1       -0.4725
     51 C           5.9969   -2.6184   -4.8046 C.3     1  LIG1        0.1252
     52 H           5.3242   -3.2796   -4.2994 H       1  LIG1        0.0731
     53 H           6.1618   -1.7492   -4.2027 H       0  HOH0        0.2528
     54 H           5.5732   -2.3272   -5.7430 H       1  LIG1        0.0731
     55 O          10.6454   -0.1384   -7.6763 O.3     1  LIG1       -0.4936
     56 C          11.8333   -0.8946   -7.9254 C.3     1  LIG1        0.0789
     57 H          12.5248   -0.2989   -8.4838 H       1  LIG1        0.0660
     58 H          12.2776   -1.1780   -6.9941 H       1  LIG1        0.0660
     59 H          11.5864   -1.7728   -8.4845 H       1  LIG1        0.0660
@<TRIPOS>BOND
     1    59    56    1
     2    57    56    1
     3    49    46    1
     4    56    55    1
     5    56    58    1
     6    55    45    1
     7    46    45   ar
     8    46    47   ar
     9    45    44   ar
    10    47    42   ar
    11    44    48    1
    12    44    43   ar
    13    54    51    1
    14    42    43   ar
    15    42    50    1
    16    39    38    1
    17    41    38    1
    18    43    28    1
    19    50    51    1
    20    38    40    1
    21    51    52    1
    22    37    53    1
    23    28    31   ar
    24    28    26   ar
    25    31    30   ar
    26    29    26    1
    27    26    25   ar
    28    30    32    1
    29    30    27   ar
    30    25    27   ar
    31    25    33    1
    32    35    33    1
    33    27    17    1
    34    33    36    1
    35    33    34    1
    36    18    17   ar
    37    18    14   ar
    38    17    16   ar
    39    23    21    1
    40    13    12    1
    41    12    11    3
    42    11     7    1
    43     7     4   ar
    44     7     6   ar
    45    14     4    1
    46    14    15   ar
    47     4     2   ar
    48     6     8    1
    49     6     3   ar
    50     2     1   ar
    51     2     5    1
    52     3     1   ar
    53     3     9    1
    54     1    10    1
    55    16    21    1
    56    16    15   ar
    57    21    24    1
    58    21    22    1
    59    15    20    1
    60    20    19    3
