@<TRIPOS>MOLECULE
mol_data/noopt/geoms/mol2/4ae13eh(330)4ee(110)12ea(210).out
 49 52 0 0 0
SMALL
GASTEIGER

@<TRIPOS>ATOM
      1 C           0.0509    0.0309    0.0002 C.ar    1  LIG1       -0.0611
      2 C           1.4592    0.0309    0.0002 C.ar    1  LIG1       -0.0514
      3 C          -0.6045    1.2792    0.0002 C.ar    1  LIG1       -0.0606
      4 C           2.1849    1.2200   -0.0004 C.ar    1  LIG1        0.0149
      5 H           1.9850   -0.9213    0.0004 H       1  LIG1        0.0624
      6 C           0.1195    2.4666   -0.0004 C.ar    1  LIG1       -0.0457
      7 C           1.5181    2.4458   -0.0008 C.ar    1  LIG1        0.0338
      8 H          -0.4090    3.4165   -0.0003 H       1  LIG1        0.0630
      9 H          -1.9035    1.3287    0.0016 H       1  LIG1        0.0618
     10 H          -0.5708   -1.1108    0.0005 H       1  LIG1        0.0618
     11 C           2.1896    3.5590   -0.0012 C.1     1  LIG1       -0.0690
     12 C           2.8100    4.5875   -0.0016 C.1     1  LIG1       -0.1139
     13 H           3.3627    5.5037   -0.0019 H       1  LIG1        0.1232
     14 C           3.4844    1.1831   -0.0005 C.ar    1  LIG1        0.0655
     15 C           4.3400    0.2450   -0.4862 C.ar    1  LIG1        0.0712
     16 C           5.6710    0.7024   -0.2218 C.ar    1  LIG1        0.0664
     17 C           5.5702    1.9007    0.4122 C.ar    1  LIG1        0.0703
     18 N           4.2332    2.1986    0.5501 N.ar    1  LIG1       -0.3516
     19 H           3.8668    3.0172    0.9787 H       1  LIG1        0.1660
     20 C           4.0074   -0.8629   -1.0794 C.1     1  LIG1       -0.0657
     21 C           3.7001   -1.8866   -1.6275 C.1     1  LIG1       -0.1138
     22 H           3.4263   -2.7985   -2.1157 H       1  LIG1        0.1232
     23 N           6.7745    0.0882   -0.5302 N.pl3   1  LIG1       -0.3554
     24 H           6.5627   -0.7283   -1.0672 H       1  LIG1        0.1424
     25 H           7.3568    0.6985   -1.0672 H       1  LIG1        0.1424
     26 C           6.4249    3.1971    2.1708 C.ar    1  LIG1        0.0346
     27 C           7.4491    4.0636    2.5995 C.ar    1  LIG1       -0.0338
     28 C           6.4940    2.7025    0.8524 C.ar    1  LIG1        0.0167
     29 C           8.4969    4.4225    1.7546 C.ar    1  LIG1        0.0350
     30 H           7.4151    4.4569    3.6130 H       1  LIG1        0.0637
     31 C           7.5398    3.0605    0.0085 C.ar    1  LIG1       -0.0353
     32 C           8.5480    3.9222    0.4530 C.ar    1  LIG1        0.0361
     33 H           7.5707    2.6659   -1.0039 H       1  LIG1        0.0637
     34 C           5.4736    2.8984    3.0049 C.1     1  LIG1       -0.0690
     35 C           4.5945    2.6224    3.7756 C.1     1  LIG1       -0.1139
     36 H           3.8115    2.3766    4.4622 H       1  LIG1        0.1232
     37 C           9.5231    4.2535   -0.3404 C.1     1  LIG1       -0.0689
     38 C          10.4241    4.5596   -1.0735 C.1     1  LIG1       -0.1139
     39 H          11.2267    4.8323   -1.7265 H       1  LIG1        0.1232
     40 C           9.4258    5.2246    2.1832 C.ar    1  LIG1        0.1513
     41 C           9.6732    6.5789    2.0952 C.ar    1  LIG1        0.0703
     42 C          10.9083    6.8223    2.8110 C.ar    1  LIG1       -0.0078
     43 C          11.3338    5.6000    3.2891 C.ar    1  LIG1        0.0938
     44 O          10.4363    4.5993    2.9151 O.2     1  LIG1       -0.4616
     45 H          12.3475    5.1801    3.9864 H       1  LIG1        0.1030
     46 C           8.9559    7.4814    1.4944 C.1     1  LIG1       -0.0659
     47 C           8.2931    8.3153    0.9393 C.1     1  LIG1       -0.1138
     48 H           7.7027    9.0581    0.4448 H       1  LIG1        0.1232
     49 H          11.4828    7.9790    2.9590 H       1  LIG1        0.0661
@<TRIPOS>BOND
     1    22    21    1
     2    39    38    1
     3    21    20    3
     4    20    15    1
     5    38    37    3
     6    25    23    1
     7    24    23    1
     8    33    31    1
     9    23    16    1
    10    15    16   ar
    11    15    14   ar
    12    37    32    1
    13    16    17   ar
    14    13    12    1
    15    12    11    3
    16    11     7    1
    17     7     6   ar
    18     7     4   ar
    19    14     4    1
    20    14    18   ar
    21     6     8    1
    22     6     3   ar
    23     4     2   ar
    24     1     2   ar
    25     1     3   ar
    26     1    10    1
    27     2     5    1
    28     3     9    1
    29    31    32   ar
    30    31    28   ar
    31    17    18   ar
    32    17    28    1
    33    48    47    1
    34    32    29   ar
    35    18    19    1
    36    28    26   ar
    37    47    46    3
    38    46    41    1
    39    29    40    1
    40    29    27   ar
    41    41    40   ar
    42    41    42   ar
    43    26    27   ar
    44    26    34    1
    45    40    44   ar
    46    27    30    1
    47    42    49    1
    48    42    43   ar
    49    44    43   ar
    50    34    35    3
    51    43    45    1
    52    35    36    1
