@<TRIPOS>MOLECULE
mol_data/noopt/geoms/mol2/4ae4ae-.out
 26 27 0 0 0
SMALL
GASTEIGER

@<TRIPOS>ATOM
      1 C           0.0509    0.0309    0.0002 C.ar    1  LIG1       -0.0611
      2 C           1.4592    0.0309    0.0002 C.ar    1  LIG1       -0.0529
      3 C          -0.6045    1.2792    0.0002 C.ar    1  LIG1       -0.0606
      4 C           2.1849    1.2200   -0.0004 C.ar    1  LIG1       -0.0025
      5 H           1.9850   -0.9213    0.0004 H       1  LIG1        0.0624
      6 C           0.1195    2.4666   -0.0004 C.ar    1  LIG1       -0.0457
      7 C           1.5181    2.4458   -0.0008 C.ar    1  LIG1        0.0324
      8 H          -0.4090    3.4165   -0.0003 H       1  LIG1        0.0630
      9 H          -1.9035    1.3287    0.0016 H       1  LIG1        0.0618
     10 H          -0.5708   -1.1108    0.0005 H       1  LIG1        0.0618
     11 C           2.1896    3.5590   -0.0012 C.1     1  LIG1       -0.0691
     12 C           2.8100    4.5875   -0.0016 C.1     1  LIG1       -0.1139
     13 H           3.3627    5.5037   -0.0019 H       1  LIG1        0.1232
     14 C           4.2212    2.3851    0.0002 C.ar    1  LIG1       -0.0539
     15 C           5.6264    2.2916    0.0016 C.ar    1  LIG1       -0.0600
     16 C           3.4843    1.1831   -0.0005 C.ar    1  LIG1       -0.0156
     17 C           6.2715    1.0569    0.0017 C.ar    1  LIG1       -0.0463
     18 H           6.2143    3.2067    0.0024 H       1  LIG1        0.0618
     19 C           4.1278   -0.0498   -0.0004 C.ar    1  LIG1       -0.0386
     20 C           5.5247   -0.1219    0.0006 C.ar    1  LIG1        0.0253
     21 H           3.5374   -0.9625   -0.0009 H       1  LIG1        0.0636
     22 H           7.5706    1.0074    0.0029 H       1  LIG1        0.0630
     23 H           3.6767    3.5656   -0.0001 H       1  LIG1        0.0624
     24 C           6.1208   -1.2772    0.0008 C.1     1  LIG1       -0.0696
     25 C           6.6715   -2.3447    0.0010 C.1     1  LIG1       -0.1139
     26 H           7.1621   -3.2956    0.0012 H       1  LIG1        0.1232
@<TRIPOS>BOND
     1    13    12    1
     2    12    11    3
     3    11     7    1
     4    21    19    1
     5     7     4   ar
     6     7     6   ar
     7    16    19   ar
     8    16     4    1
     9    16    14   ar
    10    19    20   ar
    11     4     2   ar
    12     6     8    1
    13     6     3   ar
    14    23    14    1
    15    14    15   ar
    16     1     3   ar
    17     1     2   ar
    18     1    10    1
    19     3     9    1
    20     2     5    1
    21    20    24    1
    22    20    17   ar
    23    24    25    3
    24    25    26    1
    25    15    17   ar
    26    15    18    1
    27    17    22    1
