@<TRIPOS>MOLECULE
mol_data/noopt/geoms/mol2/4ae4id(240)6ea(270)12fd(230).out
 48 53 0 0 0
SMALL
GASTEIGER

@<TRIPOS>ATOM
      1 C           0.0509    0.0309    0.0002 C.ar    1  LIG1       -0.0611
      2 C           1.4592    0.0309    0.0002 C.ar    1  LIG1       -0.0529
      3 C          -0.6045    1.2792    0.0002 C.ar    1  LIG1       -0.0606
      4 C           2.1849    1.2200   -0.0004 C.ar    1  LIG1       -0.0022
      5 H           1.9850   -0.9213    0.0004 H       1  LIG1        0.0624
      6 C           0.1195    2.4666   -0.0004 C.ar    1  LIG1       -0.0457
      7 C           1.5181    2.4458   -0.0008 C.ar    1  LIG1        0.0324
      8 H          -0.4090    3.4165   -0.0003 H       1  LIG1        0.0630
      9 H          -1.9035    1.3287    0.0016 H       1  LIG1        0.0618
     10 H          -0.5708   -1.1108    0.0005 H       1  LIG1        0.0618
     11 C           2.1896    3.5590   -0.0012 C.1     1  LIG1       -0.0691
     12 C           2.8100    4.5875   -0.0016 C.1     1  LIG1       -0.1139
     13 H           3.3627    5.5037   -0.0019 H       1  LIG1        0.1232
     14 C           4.2037    1.7735   -1.0596 C.ar    1  LIG1       -0.0421
     15 C           5.6097    1.7055   -1.0140 C.ar    1  LIG1       -0.0498
     16 C           3.4843    1.1831   -0.0005 C.ar    1  LIG1       -0.0132
     17 C           6.2721    1.0783    0.0388 C.ar    1  LIG1       -0.0066
     18 H           6.1842    2.1544   -1.8211 H       1  LIG1        0.0627
     19 C           4.1452    0.5569    1.0508 C.ar    1  LIG1       -0.0442
     20 C           5.5425    0.5000    1.0783 C.ar    1  LIG1        0.0063
     21 H           3.5680    0.1090    1.8557 H       1  LIG1        0.0630
     22 C           3.6425    2.3724   -2.0681 C.3     1  LIG1       -0.0391
     23 H           2.5835    2.2248   -2.0263 H       1  LIG1        0.0278
     24 H           4.0235    1.9657   -2.9816 H       1  LIG1        0.0278
     25 H           3.8585    3.4195   -2.0263 H       1  LIG1        0.0278
     26 N           6.6948   -0.6045    2.9325 N.pl3   1  LIG1       -0.2393
     27 C           6.1547   -0.0868    2.0635 C.ar    1  LIG1        0.0634
     28 C           8.2725    1.0099    1.2685 C.ar    1  LIG1        0.0793
     29 C           7.5713    1.0340    0.0490 C.ar    1  LIG1        0.0086
     30 C           8.3016    1.0089   -1.1406 C.ar    1  LIG1       -0.0498
     31 C           9.6950    0.9613   -1.0728 C.ar    1  LIG1       -0.0319
     32 C          10.3053    0.9405    0.1948 C.ar    1  LIG1        0.1104
     33 N           9.6163    0.9639    1.3523 N.ar    1  LIG1       -0.2431
     34 H           7.7885    1.0276   -2.1125 H       1  LIG1        0.0625
     35 C           7.6369    1.0316    2.4023 C.ar    1  LIG1        0.0259
     36 C           7.0496    1.0517    3.4499 C.3     1  LIG1        0.0957
     37 H           6.5264    1.0696    4.3831 H       1  LIG1        0.0591
     38 H          10.4199    0.9366   -2.1516 H       1  LIG1        0.0640
     39 C          11.5995    0.8961    0.3096 C.ar    1  LIG1        0.1954
     40 C          12.6631    1.5293   -0.2994 C.ar    1  LIG1        0.1819
     41 C          13.8650    1.0049    0.3148 C.ar    1  LIG1        0.1315
     42 C          13.4560    0.0857    1.2590 C.ar    1  LIG1        0.1137
     43 O          12.0633    0.0010    1.2746 O.2     1  LIG1       -0.4563
     44 H          14.0519   -0.6951    2.1106 H       1  LIG1        0.1044
     45 O          12.6228    2.4241   -1.2416 O.3     1  LIG1       -0.5023
     46 H          11.7089    2.6040   -1.4739 H       1  LIG1        0.2923
     47 N          16.1550    1.6563   -0.2486 N.1     1  LIG1       -0.1906
     48 C          15.0818    1.3510    0.0154 C.1     1  LIG1        0.1060
@<TRIPOS>BOND
     1    24    22    1
     2    38    31    1
     3    34    30    1
     4    22    25    1
     5    22    23    1
     6    22    14    1
     7    18    15    1
     8    46    45    1
     9    45    40    1
    10    30    31   ar
    11    30    29   ar
    12    31    32   ar
    13    14    15   ar
    14    14    16   ar
    15    15    17   ar
    16    40    39   ar
    17    40    41   ar
    18    47    48    3
    19    13    12    1
    20    12    11    3
    21    11     7    1
    22     7     6   ar
    23     7     4   ar
    24    16     4    1
    25    16    19   ar
    26     6     8    1
    27     6     3   ar
    28     4     2   ar
    29     1     2   ar
    30     1     3   ar
    31     1    10    1
    32     2     5    1
    33     3     9    1
    34    48    41    1
    35    17    29   ar
    36    17    20   ar
    37    29    28   ar
    38    32    39    1
    39    32    33   ar
    40    39    43   ar
    41    41    42   ar
    42    19    20   ar
    43    19    21    1
    44    20    27   ar
    45    42    43   ar
    46    42    44    1
    47    28    33   ar
    48    28    35   ar
    49    27    35   ar
    50    27    26    1
    51    35    36    1
    52    26    36    1
    53    36    37    1
