@<TRIPOS>MOLECULE
mol_data/noopt/geoms/mol2/4ae4ae-4ae.out
 38 40 0 0 0
SMALL
GASTEIGER

@<TRIPOS>ATOM
      1 C           0.0509    0.0309    0.0002 C.ar    1  LIG1       -0.0611
      2 C           1.4592    0.0309    0.0002 C.ar    1  LIG1       -0.0529
      3 C          -0.6045    1.2792    0.0002 C.ar    1  LIG1       -0.0606
      4 C           2.1849    1.2200   -0.0004 C.ar    1  LIG1       -0.0025
      5 H           1.9850   -0.9213    0.0004 H       1  LIG1        0.0624
      6 C           0.1195    2.4666   -0.0004 C.ar    1  LIG1       -0.0457
      7 C           1.5181    2.4458   -0.0008 C.ar    1  LIG1        0.0324
      8 H          -0.4090    3.4165   -0.0003 H       1  LIG1        0.0630
      9 H          -1.9035    1.3287    0.0016 H       1  LIG1        0.0618
     10 H          -0.5708   -1.1108    0.0005 H       1  LIG1        0.0618
     11 C           2.1896    3.5590   -0.0012 C.1     1  LIG1       -0.0691
     12 C           2.8100    4.5875   -0.0016 C.1     1  LIG1       -0.1139
     13 H           3.3627    5.5037   -0.0019 H       1  LIG1        0.1232
     14 C           4.2212    2.3851    0.0002 C.ar    1  LIG1       -0.0533
     15 C           5.6264    2.2916    0.0016 C.ar    1  LIG1       -0.0523
     16 C           3.4843    1.1831   -0.0005 C.ar    1  LIG1       -0.0155
     17 C           6.2715    1.0569    0.0017 C.ar    1  LIG1       -0.0024
     18 H           6.2143    3.2067    0.0024 H       1  LIG1        0.0624
     19 C           4.1278   -0.0498   -0.0004 C.ar    1  LIG1       -0.0380
     20 C           5.5247   -0.1219    0.0006 C.ar    1  LIG1        0.0329
     21 H           3.5374   -0.9625   -0.0009 H       1  LIG1        0.0636
     22 H           3.6767    3.5656   -0.0001 H       1  LIG1        0.0624
     23 C           6.1208   -1.2772    0.0008 C.1     1  LIG1       -0.0690
     24 C           6.6715   -2.3447    0.0010 C.1     1  LIG1       -0.1139
     25 H           7.1621   -3.2956    0.0012 H       1  LIG1        0.1232
     26 C           8.2259   -0.2409    0.0043 C.ar    1  LIG1       -0.0539
     27 C           9.6342   -0.2409    0.0071 C.ar    1  LIG1       -0.0600
     28 C           7.5705    1.0074    0.0029 C.ar    1  LIG1       -0.0156
     29 C          10.3599    0.9482    0.0079 C.ar    1  LIG1       -0.0463
     30 H          10.1600   -1.1931    0.0084 H       1  LIG1        0.0618
     31 C           8.2945    2.1948    0.0036 C.ar    1  LIG1       -0.0386
     32 C           9.6931    2.1740    0.0060 C.ar    1  LIG1        0.0253
     33 H           7.7660    3.1447    0.0026 H       1  LIG1        0.0636
     34 H          11.6594    0.9113    0.0104 H       1  LIG1        0.0630
     35 H           7.6041   -1.3826    0.0034 H       1  LIG1        0.0624
     36 C          10.3646    3.2871    0.0069 C.1     1  LIG1       -0.0696
     37 C          10.9850    4.3157    0.0077 C.1     1  LIG1       -0.1139
     38 H          11.5377    5.2319    0.0084 H       1  LIG1        0.1232
@<TRIPOS>BOND
     1    13    12    1
     2    12    11    3
     3    11     7    1
     4    21    19    1
     5     7     4   ar
     6     7     6   ar
     7    16    19   ar
     8    16     4    1
     9    16    14   ar
    10    19    20   ar
    11     4     2   ar
    12     6     8    1
    13     6     3   ar
    14    22    14    1
    15    14    15   ar
    16     1     3   ar
    17     1     2   ar
    18     1    10    1
    19     3     9    1
    20     2     5    1
    21    20    23    1
    22    20    17   ar
    23    23    24    3
    24    24    25    1
    25    15    17   ar
    26    15    18    1
    27    17    28    1
    28    33    31    1
    29    28    31   ar
    30    28    26   ar
    31    35    26    1
    32    31    32   ar
    33    26    27   ar
    34    32    36    1
    35    32    29   ar
    36    36    37    3
    37    27    29   ar
    38    27    30    1
    39    37    38    1
    40    29    34    1
