@<TRIPOS>MOLECULE
mol_data/noopt/geoms/mol2/4ae4fh(80)12al(270)4ie(330).out
 53 56 0 0 0
SMALL
GASTEIGER

@<TRIPOS>ATOM
      1 C           0.0509    0.0309    0.0002 C.ar    1  LIG1       -0.0611
      2 C           1.4592    0.0309    0.0002 C.ar    1  LIG1       -0.0527
      3 C          -0.6045    1.2792    0.0002 C.ar    1  LIG1       -0.0606
      4 C           2.1849    1.2200   -0.0004 C.ar    1  LIG1        0.0010
      5 H           1.9850   -0.9213    0.0004 H       1  LIG1        0.0624
      6 C           0.1195    2.4666   -0.0004 C.ar    1  LIG1       -0.0457
      7 C           1.5181    2.4458   -0.0008 C.ar    1  LIG1        0.0325
      8 H          -0.4090    3.4165   -0.0003 H       1  LIG1        0.0630
      9 H          -1.9035    1.3287    0.0016 H       1  LIG1        0.0618
     10 H          -0.5708   -1.1108    0.0005 H       1  LIG1        0.0618
     11 C           2.1896    3.5590   -0.0012 C.1     1  LIG1       -0.0691
     12 C           2.8100    4.5875   -0.0016 C.1     1  LIG1       -0.1139
     13 H           3.3627    5.5037   -0.0019 H       1  LIG1        0.1232
     14 C           4.1806    0.9517    1.2034 C.ar    1  LIG1        0.1254
     15 C           5.5876    0.9225    1.1508 C.ar    1  LIG1       -0.0071
     16 C           3.4843    1.1831   -0.0005 C.ar    1  LIG1        0.0265
     17 C           6.2731    1.1145   -0.0466 C.ar    1  LIG1        0.0415
     18 H           6.1445    0.7457    2.0682 H       1  LIG1        0.0662
     19 C           4.1682    1.3747   -1.1962 C.ar    1  LIG1       -0.0291
     20 C           5.5662    1.3418   -1.2281 C.ar    1  LIG1        0.0361
     21 H           3.6086    1.5516   -2.1112 H       1  LIG1        0.0643
     22 O           3.5973    0.7656    2.3503 O.3     1  LIG1       -0.5061
     23 H           3.7286   -0.1424    2.6330 H       1  LIG1        0.2922
     24 N           6.2001    1.5218   -2.3487 N.pl3   1  LIG1       -0.3574
     25 H           6.1947    0.6715   -2.8750 H       1  LIG1        0.1423
     26 H           5.7487    2.2423   -2.8750 H       1  LIG1        0.1423
     27 C           7.5726    1.0810   -0.0589 C.ar    1  LIG1        0.1412
     28 C           8.5465    1.0560   -1.0357 C.ar    1  LIG1        0.0267
     29 C           9.8213    1.0232   -0.3496 C.ar    1  LIG1        0.1662
     30 C           9.5417    1.0305    1.0015 C.ar    1  LIG1        0.1773
     31 O           8.1620    1.0661    1.2060 O.2     1  LIG1       -0.4510
     32 H           8.3805    1.0601   -2.3250 H       1  LIG1        0.0692
     33 O          10.9887    0.9932   -0.9209 O.3     1  LIG1       -0.4913
     34 C          11.3825   -0.3654   -1.1308 C.3     1  LIG1        0.0790
     35 H          12.3433   -0.3897   -1.6012 H       1  LIG1        0.0660
     36 H          11.4335   -0.8715   -0.1893 H       1  LIG1        0.0660
     37 H          10.6656   -0.8517   -1.7587 H       1  LIG1        0.0660
     38 C          11.1134   -0.0694    2.3521 C.ar    1  LIG1       -0.0396
     39 C          11.8544   -0.0427    3.5494 C.ar    1  LIG1       -0.0570
     40 C          10.2469    1.0123    2.0934 C.ar    1  LIG1        0.0250
     41 C          11.7398    1.0135    4.4504 C.ar    1  LIG1       -0.0460
     42 H          12.5289   -0.8674    3.7688 H       1  LIG1        0.0621
     43 C          10.1321    2.0670    2.9926 C.ar    1  LIG1       -0.0353
     44 C          10.8770    2.0754    4.1764 C.ar    1  LIG1        0.0254
     45 H           9.4570    2.8895    2.7704 H       1  LIG1        0.0637
     46 H          12.4391    1.0058    5.5463 H       1  LIG1        0.0630
     47 C          11.2632   -1.0822    1.5504 C.3     1  LIG1       -0.0390
     48 H          12.2140   -1.5398    1.7277 H       1  LIG1        0.0278
     49 H          11.2134   -0.7447    0.5362 H       1  LIG1        0.0278
     50 H          10.4855   -1.7953    1.7277 H       1  LIG1        0.0278
     51 C          10.7655    3.0640    5.0133 C.1     1  LIG1       -0.0696
     52 C          10.6624    3.9774    5.7866 C.1     1  LIG1       -0.1139
     53 H          10.5706    4.7910    6.4754 H       1  LIG1        0.1232
@<TRIPOS>BOND
     1    26    24    1
     2    25    24    1
     3    24    20    1
     4    32    28    1
     5    21    19    1
     6    37    34    1
     7    35    34    1
     8    20    19   ar
     9    20    17   ar
    10    19    16   ar
    11    34    33    1
    12    34    36    1
    13    28    29   ar
    14    28    27   ar
    15    33    29    1
    16    29    30   ar
    17    27    17    1
    18    27    31   ar
    19    17    15   ar
    20    13    12    1
    21    12    11    3
    22    11     7    1
    23     7     6   ar
    24     7     4   ar
    25    16     4    1
    26    16    14   ar
    27     6     8    1
    28     6     3   ar
    29     4     2   ar
    30     1     2   ar
    31     1     3   ar
    32     1    10    1
    33     2     5    1
    34     3     9    1
    35    49    47    1
    36    30    31   ar
    37    30    40    1
    38    15    14   ar
    39    15    18    1
    40    14    22    1
    41    47    50    1
    42    47    48    1
    43    47    38    1
    44    40    38   ar
    45    40    43   ar
    46    22    23    1
    47    38    39   ar
    48    45    43    1
    49    43    44   ar
    50    39    42    1
    51    39    41   ar
    52    44    41   ar
    53    44    51    1
    54    41    46    1
    55    51    52    3
    56    52    53    1
