@<TRIPOS>MOLECULE
mol_data/noopt/geoms/mol2/4ae4al(300)4le(50)13af(270).out
 53 54 0 0 0
SMALL
GASTEIGER

@<TRIPOS>ATOM
      1 C           0.0509    0.0309    0.0002 C.ar    1  LIG1       -0.0611
      2 C           1.4592    0.0309    0.0002 C.ar    1  LIG1       -0.0529
      3 C          -0.6045    1.2792    0.0002 C.ar    1  LIG1       -0.0606
      4 C           2.1849    1.2200   -0.0004 C.ar    1  LIG1       -0.0024
      5 H           1.9850   -0.9213    0.0004 H       1  LIG1        0.0624
      6 C           0.1195    2.4666   -0.0004 C.ar    1  LIG1       -0.0457
      7 C           1.5181    2.4458   -0.0008 C.ar    1  LIG1        0.0324
      8 H          -0.4090    3.4165   -0.0003 H       1  LIG1        0.0630
      9 H          -1.9035    1.3287    0.0016 H       1  LIG1        0.0618
     10 H          -0.5708   -1.1108    0.0005 H       1  LIG1        0.0618
     11 C           2.1896    3.5590   -0.0012 C.1     1  LIG1       -0.0691
     12 C           2.8100    4.5875   -0.0016 C.1     1  LIG1       -0.1139
     13 H           3.3627    5.5037   -0.0019 H       1  LIG1        0.1232
     14 C           4.1690    0.5515   -1.0588 C.ar    1  LIG1       -0.0532
     15 C           5.5765    0.5371   -1.0117 C.ar    1  LIG1       -0.0497
     16 C           3.4843    1.1831   -0.0005 C.ar    1  LIG1       -0.0131
     17 C           6.2734    1.1254    0.0412 C.ar    1  LIG1        0.0325
     18 H           6.1246    0.0549   -1.8181 H       1  LIG1        0.0625
     19 C           4.1796    1.7706    1.0510 C.ar    1  LIG1       -0.0066
     20 C           5.5779    1.7461    1.0795 C.ar    1  LIG1        0.1873
     21 H           3.6288    2.2514    1.8553 H       1  LIG1        0.0662
     22 H           3.5749   -0.0138   -2.0674 H       1  LIG1        0.0624
     23 O           6.2225    2.2968    2.0651 O.3     1  LIG1       -0.2872
     24 C           7.3347    1.4741    2.4269 C.3     2  LIG2       -0.0681
     25 H           7.8651    1.9278    3.2380 H       1  LIG1        0.0227
     26 H           6.9822    0.5093    2.7266 H       2  LIG2        0.0227
     27 H           7.9892    1.3696    1.5869 H       1  LIG1        0.0227
     28 C           8.2477    0.2917    0.9958 C.ar    1  LIG1        0.1874
     29 C           9.6558    0.2930    0.9681 C.ar    1  LIG1       -0.0040
     30 C           7.5729    1.0936    0.0527 C.ar    1  LIG1        0.0336
     31 C          10.3627    1.0576    0.0428 C.ar    1  LIG1        0.0174
     32 H          10.1964   -0.3185    1.6871 H       1  LIG1        0.0663
     33 C           8.2782    1.8572   -0.8712 C.ar    1  LIG1       -0.0342
     34 C           9.6769    1.8448   -0.8830 C.ar    1  LIG1        0.0346
     35 H           7.7350    2.4675   -1.5882 H       1  LIG1        0.0637
     36 O           7.6440   -0.4426    1.8825 O.3     1  LIG1       -0.2872
     37 C           6.3810    0.1439    2.2080 C.3     3  LIG3       -0.0681
     38 H           5.8844   -0.4609    2.9377 H       2  LIG2        0.0227
     39 H           6.5352    1.1259    2.6039 H       1  LIG1        0.0227
     40 H           5.7785    0.2055    1.3260 H       2  LIG2        0.0227
     41 C          10.3308    2.5607   -1.7490 C.1     1  LIG1       -0.0690
     42 C          10.9350    3.2223   -2.5491 C.1     1  LIG1       -0.1139
     43 H          11.4733    3.8115   -3.2618 H       1  LIG1        0.1232
     44 C          11.6625    1.0350    0.0455 C.ar    1  LIG1        0.0513
     45 C          12.5465    1.0202   -0.9872 C.ar    1  LIG1        0.0052
     46 C          13.8625    0.9959   -0.4233 C.ar    1  LIG1        0.1347
     47 C          13.7250    0.9987    0.9291 C.ar    1  LIG1        0.0441
     48 N          12.3797    1.0222    1.2205 N.ar    1  LIG1       -0.3576
     49 H          11.9884    1.0294    2.1341 H       1  LIG1        0.1654
     50 H          14.6236    0.9824    1.8685 H       1  LIG1        0.0844
     51 H          12.2481    1.0255   -2.2525 H       1  LIG1        0.0675
     52 O          14.9842    0.9753   -1.0802 O.3     1  LIG1       -0.5053
     53 H          15.2773    1.8751   -1.2421 H       1  LIG1        0.2922
@<TRIPOS>BOND
     1    43    42    1
     2    42    41    3
     3    51    45    1
     4    22    14    1
     5    18    15    1
     6    41    34    1
     7    35    33    1
     8    53    52    1
     9    52    46    1
    10    14    15   ar
    11    14    16   ar
    12    15    17   ar
    13    45    46   ar
    14    45    44   ar
    15    34    33   ar
    16    34    31   ar
    17    33    30   ar
    18    46    47   ar
    19    13    12    1
    20    12    11    3
    21    11     7    1
    22     7     6   ar
    23     7     4   ar
    24    16     4    1
    25    16    19   ar
    26     6     8    1
    27     6     3   ar
    28     4     2   ar
    29     1     2   ar
    30     1     3   ar
    31     1    10    1
    32     2     5    1
    33     3     9    1
    34    17    30    1
    35    17    20   ar
    36    31    44    1
    37    31    29   ar
    38    44    48   ar
    39    30    28   ar
    40    47    48   ar
    41    47    50    1
    42    29    28   ar
    43    29    32    1
    44    28    36    1
    45    19    20   ar
    46    19    21    1
    47    20    23    1
    48    48    49    1
    49    40    37    1
    50    27    24    1
    51    37    26    1
    52    37    38    1
    53    24    39    1
    54    24    25    1
