@<TRIPOS>MOLECULE
mol_data/noopt/geoms/mol2/4ae4ea6el(240)6ah(310).out
 52 55 0 0 0
SMALL
GASTEIGER

@<TRIPOS>ATOM
      1 C           0.0509    0.0309    0.0002 C.ar    1  LIG1       -0.0611
      2 C           1.4592    0.0309    0.0002 C.ar    1  LIG1       -0.0528
      3 C          -0.6045    1.2792    0.0002 C.ar    1  LIG1       -0.0606
      4 C           2.1849    1.2200   -0.0004 C.ar    1  LIG1       -0.0013
      5 H           1.9850   -0.9213    0.0004 H       1  LIG1        0.0624
      6 C           0.1195    2.4666   -0.0004 C.ar    1  LIG1       -0.0457
      7 C           1.5181    2.4458   -0.0008 C.ar    1  LIG1        0.0324
      8 H          -0.4090    3.4165   -0.0003 H       1  LIG1        0.0630
      9 H          -1.9035    1.3287    0.0016 H       1  LIG1        0.0618
     10 H          -0.5708   -1.1108    0.0005 H       1  LIG1        0.0618
     11 C           2.1896    3.5590   -0.0012 C.1     1  LIG1       -0.0691
     12 C           2.8100    4.5875   -0.0016 C.1     1  LIG1       -0.1139
     13 H           3.3627    5.5037   -0.0019 H       1  LIG1        0.1232
     14 C           4.1518   -0.0588    0.0002 C.ar    1  LIG1        0.0330
     15 C           5.5600   -0.0451    0.0016 C.ar    1  LIG1       -0.0379
     16 C           3.4843    1.1831   -0.0005 C.ar    1  LIG1       -0.0013
     17 C           6.2742    1.1510    0.0017 C.ar    1  LIG1       -0.0139
     18 H           6.0950   -0.9922    0.0024 H       1  LIG1        0.0636
     19 C           4.1968    2.3775   -0.0004 C.ar    1  LIG1       -0.0522
     20 C           5.5955    2.3702    0.0006 C.ar    1  LIG1       -0.0533
     21 H           3.6591    3.3222   -0.0009 H       1  LIG1        0.0624
     22 C           3.5412   -1.2064   -0.0001 C.1     1  LIG1       -0.0690
     23 C           2.9769   -2.2669   -0.0003 C.1     1  LIG1       -0.1139
     24 H           2.4743   -3.2115   -0.0006 H       1  LIG1        0.1232
     25 H           6.2561    3.4899    0.0008 H       1  LIG1        0.0624
     26 C           8.2726    0.5060    1.0545 C.ar    1  LIG1        0.1217
     27 C           7.5739    1.1267    0.0029 C.ar    1  LIG1        0.0195
     28 C           8.3073    1.7110   -1.0314 C.ar    1  LIG1       -0.0074
     29 C           9.7012    1.6563   -0.9809 C.ar    1  LIG1        0.1466
     30 C          10.3089    1.0131    0.1130 C.ar    1  LIG1        0.1154
     31 N           9.6168    0.4440    1.1192 N.ar    1  LIG1       -0.2341
     32 H           7.7962    2.2059   -1.8694 H       1  LIG1        0.0662
     33 C           7.6341   -0.0519    2.0399 C.1     1  LIG1       -0.0492
     34 C           7.0441   -0.5675    2.9504 C.1     1  LIG1       -0.1124
     35 H           6.5185   -1.0267    3.7615 H       1  LIG1        0.1232
     36 O          10.4290    2.1855   -1.9192 O.3     1  LIG1       -0.4929
     37 C          11.4889    1.2895   -2.2638 C.3     1  LIG1        0.0789
     38 H          12.0875    1.7253   -3.0362 H       1  LIG1        0.0660
     39 H          12.0962    1.1072   -1.4018 H       1  LIG1        0.0660
     40 H          11.0761    0.3655   -2.6110 H       1  LIG1        0.0660
     41 C          12.2922    1.6775    1.1823 C.ar    1  LIG1        0.0370
     42 C          11.6034    0.9363    0.2047 C.ar    1  LIG1        0.0238
     43 C          12.3407    0.1224   -0.6572 C.ar    1  LIG1       -0.0288
     44 C          13.7286    0.0767   -0.5152 C.ar    1  LIG1        0.0435
     45 C          14.3265    0.8548    0.4930 C.ar    1  LIG1        0.0482
     46 N          13.6305    1.6453    1.3333 N.ar    1  LIG1       -0.2608
     47 H          11.8373   -0.4704   -1.4341 H       1  LIG1        0.0643
     48 H          15.6150    0.8457    0.6646 H       1  LIG1        0.0848
     49 H          11.6497    2.4493    2.0078 H       1  LIG1        0.0836
     50 N          14.4596   -0.6653   -1.2931 N.pl3   1  LIG1       -0.3568
     51 H          13.8675   -1.2277   -1.8702 H       1  LIG1        0.1424
     52 H          15.0307   -0.0817   -1.8702 H       1  LIG1        0.1424
@<TRIPOS>BOND
     1    38    37    1
     2    40    37    1
     3    37    36    1
     4    37    39    1
     5    36    29    1
     6    52    50    1
     7    51    50    1
     8    32    28    1
     9    47    43    1
    10    50    44    1
    11    28    29   ar
    12    28    27   ar
    13    29    30   ar
    14    43    44   ar
    15    43    42   ar
    16    44    45   ar
    17    13    12    1
    18    12    11    3
    19    11     7    1
    20    21    19    1
    21     7     6   ar
    22     7     4   ar
    23    24    23    1
    24    16    19   ar
    25    16     4    1
    26    16    14   ar
    27    19    20   ar
    28     6     8    1
    29     6     3   ar
    30     4     2   ar
    31    23    22    3
    32    22    14    1
    33     1     2   ar
    34     1     3   ar
    35     1    10    1
    36     2     5    1
    37     3     9    1
    38    14    15   ar
    39    20    25    1
    40    20    17   ar
    41    15    17   ar
    42    15    18    1
    43    17    27    1
    44    27    26   ar
    45    30    42    1
    46    30    31   ar
    47    42    41   ar
    48    45    48    1
    49    45    46   ar
    50    26    31   ar
    51    26    33    1
    52    41    46   ar
    53    41    49    1
    54    33    34    3
    55    34    35    1
