@<TRIPOS>MOLECULE
mol_data/noopt/geoms/mol2/4ae4ae4ae-4ae.out
 50 53 0 0 0
SMALL
GASTEIGER

@<TRIPOS>ATOM
      1 C           0.0509    0.0309    0.0002 C.ar    1  LIG1       -0.0611
      2 C           1.4592    0.0309    0.0002 C.ar    1  LIG1       -0.0529
      3 C          -0.6045    1.2792    0.0002 C.ar    1  LIG1       -0.0606
      4 C           2.1849    1.2200   -0.0004 C.ar    1  LIG1       -0.0025
      5 H           1.9850   -0.9213    0.0004 H       1  LIG1        0.0624
      6 C           0.1195    2.4666   -0.0004 C.ar    1  LIG1       -0.0457
      7 C           1.5181    2.4458   -0.0008 C.ar    1  LIG1        0.0324
      8 H          -0.4090    3.4165   -0.0003 H       1  LIG1        0.0630
      9 H          -1.9035    1.3287    0.0016 H       1  LIG1        0.0618
     10 H          -0.5708   -1.1108    0.0005 H       1  LIG1        0.0618
     11 C           2.1896    3.5590   -0.0012 C.1     1  LIG1       -0.0691
     12 C           2.8100    4.5875   -0.0016 C.1     1  LIG1       -0.1139
     13 H           3.3627    5.5037   -0.0019 H       1  LIG1        0.1232
     14 C           4.1518   -0.0588    0.0002 C.ar    1  LIG1       -0.0533
     15 C           5.5600   -0.0451    0.0016 C.ar    1  LIG1       -0.0523
     16 C           3.4843    1.1831   -0.0005 C.ar    1  LIG1       -0.0155
     17 C           6.2742    1.1510    0.0017 C.ar    1  LIG1       -0.0024
     18 H           6.0950   -0.9922    0.0024 H       1  LIG1        0.0624
     19 C           4.1968    2.3775   -0.0004 C.ar    1  LIG1       -0.0380
     20 C           5.5955    2.3702    0.0006 C.ar    1  LIG1        0.0329
     21 H           3.6591    3.3222   -0.0009 H       1  LIG1        0.0636
     22 H           3.5412   -1.2064   -0.0001 H       1  LIG1        0.0624
     23 C           6.2561    3.4899    0.0008 C.1     1  LIG1       -0.0690
     24 C           6.8666    4.5244    0.0010 C.1     1  LIG1       -0.1139
     25 H           7.4103    5.4459    0.0012 H       1  LIG1        0.1232
     26 C           8.2991    2.3358    0.0043 C.ar    1  LIG1       -0.0533
     27 C           9.7051    2.2559    0.0071 C.ar    1  LIG1       -0.0523
     28 C           7.5739    1.1267    0.0029 C.ar    1  LIG1       -0.0155
     29 C          10.3621    1.0275    0.0079 C.ar    1  LIG1       -0.0024
     30 H          10.2841    3.1767    0.0084 H       1  LIG1        0.0624
     31 C           8.2293   -0.0999    0.0037 C.ar    1  LIG1       -0.0380
     32 C           9.6269   -0.1585    0.0061 C.ar    1  LIG1        0.0329
     33 H           7.6478   -1.0183    0.0026 H       1  LIG1        0.0636
     34 H           7.7431    3.5109    0.0034 H       1  LIG1        0.0624
     35 C          10.2341   -1.3080    0.0069 C.1     1  LIG1       -0.0690
     36 C          10.7952   -2.3701    0.0077 C.1     1  LIG1       -0.1139
     37 H          11.2950   -3.3162    0.0084 H       1  LIG1        0.1232
     38 C          12.3290   -0.2513    0.0125 C.ar    1  LIG1       -0.0539
     39 C          13.7373   -0.2376    0.0167 C.ar    1  LIG1       -0.0600
     40 C          11.6616    0.9906    0.0104 C.ar    1  LIG1       -0.0156
     41 C          14.4514    0.9585    0.0181 C.ar    1  LIG1       -0.0463
     42 H          14.2723   -1.1847    0.0186 H       1  LIG1        0.0618
     43 C          12.3740    2.1850    0.0118 C.ar    1  LIG1       -0.0386
     44 C          13.7727    2.1777    0.0156 C.ar    1  LIG1        0.0253
     45 H          11.8363    3.1297    0.0102 H       1  LIG1        0.0636
     46 H          15.7512    0.9342    0.0219 H       1  LIG1        0.0630
     47 H          11.7184   -1.3989    0.0110 H       1  LIG1        0.0624
     48 C          14.4334    3.2973    0.0171 C.1     1  LIG1       -0.0696
     49 C          15.0438    4.3319    0.0185 C.1     1  LIG1       -0.1139
     50 H          15.5876    5.2534    0.0197 H       1  LIG1        0.1232
@<TRIPOS>BOND
     1    13    12    1
     2    12    11    3
     3    11     7    1
     4    21    19    1
     5     7     4   ar
     6     7     6   ar
     7    16    19   ar
     8    16     4    1
     9    16    14   ar
    10    19    20   ar
    11     4     2   ar
    12     6     8    1
    13     6     3   ar
    14    22    14    1
    15     2     1   ar
    16     2     5    1
    17     3     1   ar
    18     3     9    1
    19     1    10    1
    20    14    15   ar
    21    20    23    1
    22    20    17   ar
    23    23    24    3
    24    24    25    1
    25    15    17   ar
    26    15    18    1
    27    17    28    1
    28    33    31    1
    29    28    31   ar
    30    28    26   ar
    31    34    26    1
    32    31    32   ar
    33    26    27   ar
    34    32    35    1
    35    32    29   ar
    36    35    36    3
    37    27    29   ar
    38    27    30    1
    39    36    37    1
    40    29    40    1
    41    45    43    1
    42    40    43   ar
    43    40    38   ar
    44    47    38    1
    45    43    44   ar
    46    38    39   ar
    47    44    48    1
    48    44    41   ar
    49    39    41   ar
    50    39    42    1
    51    48    49    3
    52    41    46    1
    53    49    50    1
