@<TRIPOS>MOLECULE
mol_data/noopt/geoms/mol2/4ae6hf13fe-12ei-.out
 49 52 0 0 0
SMALL
GASTEIGER

@<TRIPOS>ATOM
      1 C           0.0509    0.0309    0.0002 C.ar    1  LIG1       -0.0612
      2 C           1.4592    0.0309    0.0002 C.ar    1  LIG1       -0.0537
      3 C          -0.6045    1.2792    0.0002 C.ar    1  LIG1       -0.0615
      4 C           2.1849    1.2200   -0.0004 C.ar    1  LIG1       -0.0110
      5 H           1.9850   -0.9213    0.0004 H       1  LIG1        0.0624
      6 C           0.1195    2.4666   -0.0004 C.ar    1  LIG1       -0.0577
      7 C           1.5181    2.4458   -0.0008 C.ar    1  LIG1       -0.0356
      8 H          -0.4090    3.4165   -0.0003 H       1  LIG1        0.0621
      9 H          -1.9035    1.3287    0.0016 H       1  LIG1        0.0618
     10 H          -0.5708   -1.1108    0.0005 H       1  LIG1        0.0618
     11 C           2.1896    3.5590   -0.0012 C.3     1  LIG1       -0.0048
     12 C           2.8100    4.5875   -0.0016 C.3     1  LIG1       -0.0263
     13 H           3.3627    5.5037   -0.0019 H       1  LIG1        0.0313
     14 C           4.2297    2.3764   -0.0004 C.ar    1  LIG1        0.1436
     15 C           3.4844    1.1831   -0.0005 C.ar    1  LIG1        0.0270
     16 C           4.1715   -0.0322   -0.0004 C.ar    1  LIG1       -0.0069
     17 C           5.5673   -0.0149   -0.0004 C.ar    1  LIG1        0.1450
     18 C           6.2235    1.2297   -0.0005 C.ar    1  LIG1        0.1341
     19 N           5.5764    2.4115   -0.0004 N.ar    1  LIG1       -0.2249
     20 H           3.6233   -0.9849   -0.0015 H       1  LIG1        0.0662
     21 N           3.6351    3.5325   -0.0004 N.pl3   1  LIG1       -0.2488
     22 H           4.2088    4.2023   -0.4718 H       1  LIG1        0.1715
     23 H           2.7566    3.4555   -0.4718 H       1  LIG1        0.0358
     24 O           6.2532   -1.1193   -0.0005 O.3     1  LIG1       -0.5045
     25 H           7.1910   -0.9141   -0.0005 H       1  LIG1        0.2922
     26 C           7.5217    1.2976   -0.0004 C.ar    1  LIG1        0.1124
     27 C           8.4565    0.3108    0.0159 C.ar    1  LIG1        0.1598
     28 C           9.7428    0.9400    0.0083 C.ar    1  LIG1        0.0950
     29 C           9.5376    2.2836   -0.0140 C.ar    1  LIG1        0.1030
     30 N           8.1792    2.5070   -0.0190 N.ar    1  LIG1       -0.3465
     31 H           7.7424    3.3998   -0.0343 H       1  LIG1        0.1662
     32 O           8.2220   -0.9678    0.0363 O.3     1  LIG1       -0.5034
     33 H           9.0543   -1.4462    0.0413 H       1  LIG1        0.2923
     34 C          10.8962    0.3403    0.0201 C.1     1  LIG1       -0.0637
     35 C          11.9620   -0.2137    0.0310 C.1     1  LIG1       -0.1137
     36 H          12.9113   -0.7072    0.0407 H       1  LIG1        0.1232
     37 C          10.3880    3.2667   -0.0285 C.ar    1  LIG1        0.1677
     38 C          11.7630    3.3775   -0.0394 C.ar    1  LIG1        0.0747
     39 C          12.0650    4.7936   -0.0535 C.ar    1  LIG1        0.0034
     40 C          10.8539    5.4546   -0.0503 C.ar    1  LIG1        0.0968
     41 O           9.8050    4.5347   -0.0351 O.2     1  LIG1       -0.4599
     42 H          10.4779    6.6990   -0.0581 H       1  LIG1        0.1032
     43 C          12.6387    2.4166   -0.0376 C.1     1  LIG1       -0.0656
     44 C          13.4478    1.5288   -0.0359 C.1     1  LIG1       -0.1138
     45 H          14.1685    0.7380   -0.0344 H       1  LIG1        0.1232
     46 C          13.2565    5.3143   -0.0665 C.3     1  LIG1       -0.0355
     47 H          13.2381    6.2597    0.4343 H       1  LIG1        0.0279
     48 H          13.5740    5.4532   -1.0789 H       1  LIG1        0.0279
     49 H          13.9377    4.6586    0.4342 H       1  LIG1        0.0279
@<TRIPOS>BOND
     1    48    46    1
     2    23    11    1
     3    22    21    1
     4    46    39    1
     5    46    49    1
     6    46    47    1
     7    42    40    1
     8    39    40   ar
     9    39    38   ar
    10    40    41   ar
    11    38    43    1
    12    38    37   ar
    13    43    44    3
    14    44    45    1
    15    41    37   ar
    16    31    30    1
    17    37    29    1
    18    30    29   ar
    19    30    26   ar
    20    29    28   ar
    21    13    12    1
    22    12    11    1
    23    20    16    1
    24    11     7    1
    25     7     6   ar
    26     7     4   ar
    27    15     4    1
    28    15    14   ar
    29    15    16   ar
    30    25    24    1
    31    18    19   ar
    32    18    26    1
    33    18    17   ar
    34    24    17    1
    35     6     8    1
    36     6     3   ar
    37     4     2   ar
    38    14    21    1
    39    14    19   ar
    40    16    17   ar
    41    26    27   ar
    42     1     3   ar
    43     1     2   ar
    44     1    10    1
    45     3     9    1
    46     2     5    1
    47    28    27   ar
    48    28    34    1
    49    27    32    1
    50    34    35    3
    51    35    36    1
    52    32    33    1
