@<TRIPOS>MOLECULE
mol_data/noopt/geoms/mol2/4af12eh13la6fh6ee4ai-6ah6dd.out
 96 98 0 0 0
SMALL
GASTEIGER

@<TRIPOS>ATOM
      1 C           0.0509    0.0309    0.0002 C.ar    1  LIG1       -0.0609
      2 C           1.4592    0.0309    0.0002 C.ar    1  LIG1       -0.0475
      3 C          -0.6045    1.2792    0.0002 C.ar    1  LIG1       -0.0583
      4 C           2.1849    1.2200   -0.0004 C.ar    1  LIG1        0.0599
      5 H           1.9850   -0.9213    0.0004 H       1  LIG1        0.0626
      6 C           0.1195    2.4666   -0.0004 C.ar    1  LIG1       -0.0195
      7 C           1.5181    2.4458   -0.0008 C.ar    1  LIG1        0.1275
      8 H          -0.4090    3.4165   -0.0003 H       1  LIG1        0.0654
      9 H          -1.9035    1.3287    0.0016 H       1  LIG1        0.0619
     10 H          -0.5708   -1.1108    0.0005 H       1  LIG1        0.0618
     11 O           2.1896    3.5590   -0.0012 O.3     1  LIG1       -0.5061
     12 H           1.5802    4.3008   -0.0013 H       1  LIG1        0.2922
     13 C           3.4844    1.1831   -0.0005 C.ar    1  LIG1        0.1552
     14 C           4.4399    0.1881   -0.0006 C.ar    1  LIG1        0.0790
     15 C           5.7279    0.8499   -0.0007 C.ar    1  LIG1        0.0504
     16 C           5.4738    2.2061   -0.0008 C.ar    1  LIG1        0.1646
     17 O           4.0977    2.4367   -0.0007 O.2     1  LIG1       -0.4512
     18 C           4.2495   -1.0979   -0.0005 C.1     1  LIG1       -0.0652
     19 C           4.0736   -2.2861   -0.0004 C.1     1  LIG1       -0.1138
     20 H           3.9169   -3.3446   -0.0003 H       1  LIG1        0.1232
     21 N           6.8846    0.2566   -0.0008 N.3     2  LIG2       -0.1629
     22 H           6.8084   -0.6220   -0.4722 H       1  LIG1        0.1629
     23 H           7.5538    0.8309   -0.4722 H       2  LIG2        0.0309
     24 C           6.1999    3.2844   -0.0008 C.ar    1  LIG1        0.1304
     25 C           7.5504    3.4384    0.0154 C.ar    1  LIG1        0.2077
     26 C           7.8207    4.8446    0.0076 C.ar    1  LIG1        0.0113
     27 C           6.6235    5.4882   -0.0147 C.ar    1  LIG1        0.0559
     28 N           5.6285    4.5367   -0.0195 N.ar    1  LIG1       -0.3485
     29 H           4.6524    4.7243   -0.0347 H       1  LIG1        0.1661
     30 O           8.4313    2.4825    0.0358 O.3     1  LIG1       -0.2855
     31 C           7.7634    1.2180    0.0432 C.3     3  LIG3       -0.0309
     32 H           8.4887    0.4316    0.0599 H       4  UNK4        0.0000
     33 H           7.1416    1.1482    0.9113 H       5  UNK5        0.0000
     34 H           7.1600    1.1282   -0.8358 H       6  UNK6        0.0000
     35 H           8.9932    5.4060    0.0193 H       1  LIG1        0.0677
     36 C           5.0121    7.1974   -0.0371 C.ar    1  LIG1        0.2223
     37 C           6.3489    6.7587   -0.0293 C.ar    1  LIG1        0.0615
     38 C           7.3648    7.7163   -0.0372 C.ar    1  LIG1       -0.0247
     39 C           7.0146    9.0675   -0.0526 C.ar    1  LIG1        0.0519
     40 C           5.6493    9.4073   -0.0596 C.ar    1  LIG1        0.0981
     41 N           4.6564    8.4966   -0.0520 N.ar    1  LIG1       -0.2105
     42 H           8.4209    7.4115   -0.0325 H       1  LIG1        0.0645
     43 O           4.0315    6.3439   -0.0301 O.3     1  LIG1       -0.4919
     44 H           4.3839    5.4509   -0.0284 H       1  LIG1        0.2937
     45 N           7.9232    9.9972   -0.0607 N.pl3   1  LIG1       -0.3563
     46 H           8.7381    9.6628   -0.5342 H       1  LIG1        0.1424
     47 H           7.5703   10.8041   -0.5342 H       1  LIG1        0.1424
     48 C           3.9056   10.9811   -0.0816 C.ar    1  LIG1        0.1231
     49 C           5.2733   10.6516   -0.0739 C.ar    1  LIG1        0.0373
     50 C           6.2088   11.6879   -0.0817 C.ar    1  LIG1       -0.0323
     51 C           5.7509   13.0065   -0.0969 C.ar    1  LIG1        0.0513
     52 C           4.3627   13.2352   -0.1038 C.ar    1  LIG1        0.0877
     53 N           3.4463   12.2475   -0.0963 N.ar    1  LIG1       -0.2365
     54 H           7.2860   11.4692   -0.0771 H       1  LIG1        0.0638
     55 C           2.9969   10.0515   -0.0747 C.1     1  LIG1       -0.0491
     56 C           2.1573    9.1925   -0.0684 C.1     1  LIG1       -0.1124
     57 H           1.4094    8.4273   -0.0628 H       1  LIG1        0.1232
     58 C           6.5816   14.0063   -0.1048 C.1     1  LIG1       -0.0675
     59 C           7.3493   14.9302   -0.1122 C.1     1  LIG1       -0.1138
     60 H           8.0331   15.7532   -0.1187 H       1  LIG1        0.1232
     61 C           4.7685   15.5459   -0.1034 C.ar    1  LIG1       -0.0519
     62 C           4.2044   16.8361   -0.1180 C.ar    1  LIG1       -0.0531
     63 C           3.8876   14.4451   -0.1179 C.ar    1  LIG1        0.0019
     64 C           2.8244   17.0245   -0.1464 C.ar    1  LIG1       -0.0134
     65 H           4.8660   17.6994   -0.1070 H       1  LIG1        0.0624
     66 C           2.5099   14.6326   -0.1462 C.ar    1  LIG1       -0.0490
     67 C           1.9687   15.9223   -0.1608 C.ar    1  LIG1       -0.0421
     68 H           1.8515   13.7678   -0.1569 H       1  LIG1        0.0627
     69 H           6.0634   15.4337   -0.0771 H       1  LIG1        0.0624
     70 C           0.6797   16.0915   -0.1872 C.3     1  LIG1       -0.0391
     71 H           0.2023   15.2730    0.3099 H       1  LIG1        0.0278
     72 H           0.3464   16.1352   -1.2031 H       1  LIG1        0.0278
     73 H           0.4297   17.0055    0.3098 H       1  LIG1        0.0278
     74 C           0.9457   18.4346   -0.1663 C.ar    1  LIG1        0.0361
     75 C           2.3376   18.2298   -0.1594 C.ar    1  LIG1        0.0023
     76 C           3.1758   19.3463   -0.1664 C.ar    1  LIG1       -0.0298
     77 C           2.6007   20.6182   -0.1802 C.ar    1  LIG1        0.0516
     78 C           1.1975   20.7207   -0.1865 C.ar    1  LIG1        0.0943
     79 N           0.3740   19.6544   -0.1796 N.ar    1  LIG1       -0.2524
     80 H           4.2683   19.2257   -0.1624 H       1  LIG1        0.0643
     81 H           0.1246   17.4267   -0.1601 H       1  LIG1        0.0836
     82 N           3.3379   21.6890   -0.1874 N.pl3   1  LIG1       -0.3563
     83 H           4.1980   21.4984   -0.6607 H       1  LIG1        0.1424
     84 H           2.8529   22.4243   -0.6607 H       1  LIG1        0.1424
     85 C          -0.7886   21.9749   -0.2060 C.ar    1  LIG1        0.1493
     86 C           0.6152   21.8829   -0.1992 C.ar    1  LIG1        0.0392
     87 C           1.3607   23.0633   -0.2061 C.ar    1  LIG1       -0.0309
     88 C           0.6851   24.2847   -0.2196 C.ar    1  LIG1        0.0705
     89 C          -0.7218   24.2739   -0.2258 C.ar    1  LIG1        0.0464
     90 N          -1.4567   23.1447   -0.2191 N.ar    1  LIG1       -0.2427
     91 H           2.4595   23.0310   -0.2021 H       1  LIG1        0.0638
     92 H          -1.3958   25.3854   -0.2383 H       1  LIG1        0.0843
     93 N          -2.1761   19.9598   -0.1945 N.1     1  LIG1       -0.1893
     94 C          -1.5259   20.9042   -0.1999 C.1     1  LIG1        0.1198
     95 N           1.9056   26.4051   -0.2329 N.1     1  LIG1       -0.1908
     96 C           1.3336   25.4114   -0.2267 C.1     1  LIG1        0.1007
@<TRIPOS>BOND
     1    72    70    1
     2    84    82    1
     3    83    82    1
     4    47    45    1
     5    46    45    1
     6    23    31    1
     7    22    21    1
     8    92    89    1
     9    95    96    3
    10    96    88    1
    11    89    88   ar
    12    89    90   ar
    13    88    87   ar
    14    90    85   ar
    15    87    91    1
    16    87    86   ar
    17    85    94    1
    18    85    86   ar
    19    94    93    3
    20    86    78    1
    21    82    77    1
    22    70    67    1
    23    70    73    1
    24    70    71    1
    25    78    77   ar
    26    78    79   ar
    27    77    76   ar
    28    79    74   ar
    29    76    80    1
    30    76    75   ar
    31    74    81    1
    32    74    75   ar
    33    67    64   ar
    34    67    66   ar
    35    75    64    1
    36    68    66    1
    37    64    62   ar
    38    66    63   ar
    39    60    59    1
    40    62    65    1
    41    62    61   ar
    42    63    52    1
    43    63    61   ar
    44    59    58    3
    45    58    51    1
    46    52    51   ar
    47    52    53   ar
    48    61    69    1
    49    51    50   ar
    50    53    48   ar
    51    50    54    1
    52    50    49   ar
    53    48    55    1
    54    48    49   ar
    55    55    56    3
    56    49    40    1
    57    56    57    1
    58    45    39    1
    59    40    39   ar
    60    40    41   ar
    61    39    38   ar
    62    41    36   ar
    63    38    42    1
    64    38    37   ar
    65    36    43    1
    66    36    37   ar
    67    29    28    1
    68    43    44    1
    69    37    27    1
    70    28    27   ar
    71    28    24   ar
    72    27    26   ar
    73    12    11    1
    74    11     7    1
    75    24    16    1
    76    24    25   ar
    77     7     6   ar
    78     7     4   ar
    79    16    17   ar
    80    16    15   ar
    81    17    13   ar
    82    15    14   ar
    83    14    13   ar
    84    14    18    1
    85    13     4    1
    86    18    19    3
    87     6     8    1
    88     6     3   ar
    89     4     2   ar
    90    19    20    1
    91     3     1   ar
    92     3     9    1
    93     2     1   ar
    94     2     5    1
    95     1    10    1
    96    26    25   ar
    97    26    35    1
    98    25    30    1
