@<TRIPOS>MOLECULE
mol_data/noopt/geoms/mol2/4af13al-6if-6hl-.out
 53 56 0 0 0
SMALL
GASTEIGER

@<TRIPOS>ATOM
      1 C           0.0509    0.0309    0.0002 C.ar    1  LIG1       -0.0609
      2 C           1.4592    0.0309    0.0002 C.ar    1  LIG1       -0.0491
      3 C          -0.6045    1.2792    0.0002 C.ar    1  LIG1       -0.0583
      4 C           2.1849    1.2200   -0.0004 C.ar    1  LIG1        0.0398
      5 H           1.9850   -0.9213    0.0004 H       1  LIG1        0.0625
      6 C           0.1195    2.4666   -0.0004 C.ar    1  LIG1       -0.0195
      7 C           1.5181    2.4458   -0.0008 C.ar    1  LIG1        0.1259
      8 H          -0.4090    3.4165   -0.0003 H       1  LIG1        0.0654
      9 H          -1.9035    1.3287    0.0016 H       1  LIG1        0.0619
     10 H          -0.5708   -1.1108    0.0005 H       1  LIG1        0.0618
     11 O           2.1896    3.5590   -0.0012 O.3     1  LIG1       -0.5061
     12 H           1.5802    4.3008   -0.0013 H       1  LIG1        0.2922
     13 C           3.4844    1.1831   -0.0005 C.ar    1  LIG1        0.0540
     14 C           4.3366    0.1241    0.0157 C.ar    1  LIG1        0.0061
     15 C           5.6695    0.6477    0.0079 C.ar    1  LIG1        0.1459
     16 C           5.5731    2.0035   -0.0145 C.ar    1  LIG1        0.0910
     17 N           4.2371    2.3356   -0.0192 N.ar    1  LIG1       -0.3511
     18 H           3.8736    3.2606   -0.0344 H       1  LIG1        0.1660
     19 H           3.9999   -1.1313    0.0361 H       1  LIG1        0.0676
     20 O           6.7709   -0.0429    0.0195 O.3     1  LIG1       -0.4930
     21 C           6.4591   -1.4385    0.0237 C.3     1  LIG1        0.0789
     22 H           7.3659   -2.0065    0.0331 H       1  LIG1        0.0660
     23 H           5.8826   -1.6726    0.8942 H       1  LIG1        0.0660
     24 H           5.8956   -1.6808   -0.8530 H       1  LIG1        0.0660
     25 C           6.1558    4.2788   -0.0580 C.ar    1  LIG1        0.0484
     26 C           6.5000    2.9149   -0.0291 C.ar    1  LIG1        0.0264
     27 C           7.8524    2.5687   -0.0161 C.ar    1  LIG1       -0.0071
     28 C           8.8069    3.5872   -0.0327 C.ar    1  LIG1        0.1435
     29 C           8.3640    4.9223   -0.0617 C.ar    1  LIG1        0.1159
     30 N           7.0635    5.2741   -0.0743 N.ar    1  LIG1       -0.2475
     31 H           8.1596    1.5135    0.0055 H       1  LIG1        0.0662
     32 C           4.9100    4.6509   -0.0709 C.3     1  LIG1       -0.0217
     33 H           4.3134    3.9173    0.4300 H       1  LIG1        0.0293
     34 H           4.5777    4.7500   -1.0832 H       1  LIG1        0.0293
     35 H           4.8135    5.5915    0.4299 H       1  LIG1        0.0293
     36 O          10.0785    3.3167   -0.0218 O.3     1  LIG1       -0.5046
     37 H          10.5801    4.1352   -0.0191 H       1  LIG1        0.2922
     38 C           8.7615    7.2370   -0.1077 C.ar    1  LIG1        0.1257
     39 C           9.2144    5.9054   -0.0778 C.ar    1  LIG1        0.0469
     40 C          10.5903    5.6692   -0.0658 C.ar    1  LIG1       -0.0059
     41 C          11.4597    6.7612   -0.0840 C.ar    1  LIG1        0.1389
     42 C          10.9107    8.0563   -0.1138 C.ar    1  LIG1        0.0713
     43 N           9.5860    8.3022   -0.1256 N.ar    1  LIG1       -0.2364
     44 H          10.9816    4.6422   -0.0436 H       1  LIG1        0.0662
     45 H          11.6791    9.1046   -0.1315 H       1  LIG1        0.0868
     46 N           7.4900    7.5075   -0.1198 N.pl3   1  LIG1       -0.3426
     47 H           7.3382    8.3746   -0.5943 H       1  LIG1        0.1437
     48 H           6.9984    6.7774   -0.5943 H       1  LIG1        0.1437
     49 O          12.7489    6.5941   -0.0740 O.3     1  LIG1       -0.4936
     50 C          13.0490    5.1959   -0.0704 C.3     1  LIG1        0.0789
     51 H          14.1101    5.0588   -0.0624 H       1  LIG1        0.0660
     52 H          12.6241    4.7422    0.8005 H       1  LIG1        0.0660
     53 H          12.6371    4.7405   -0.9467 H       1  LIG1        0.0660
@<TRIPOS>BOND
     1    34    32    1
     2    53    50    1
     3    24    21    1
     4    48    46    1
     5    47    46    1
     6    45    42    1
     7    43    42   ar
     8    43    38   ar
     9    46    38    1
    10    42    41   ar
    11    38    39   ar
    12    41    49    1
    13    41    40   ar
    14    39    40   ar
    15    39    29    1
    16    30    29   ar
    17    30    25   ar
    18    49    50    1
    19    32    25    1
    20    32    35    1
    21    32    33    1
    22    50    51    1
    23    50    52    1
    24    40    44    1
    25    29    28   ar
    26    25    26   ar
    27    18    17    1
    28    28    36    1
    29    28    27   ar
    30    26    27   ar
    31    26    16    1
    32    36    37    1
    33    17    16   ar
    34    17    13   ar
    35    27    31    1
    36    16    15   ar
    37    12    11    1
    38    11     7    1
    39     7     4   ar
    40     7     6   ar
    41    13     4    1
    42    13    14   ar
    43     4     2   ar
    44     6     8    1
    45     6     3   ar
    46     2     1   ar
    47     2     5    1
    48     1     3   ar
    49     1    10    1
    50     3     9    1
    51    15    14   ar
    52    15    20    1
    53    14    19    1
    54    20    21    1
    55    21    22    1
    56    21    23    1
