@<TRIPOS>MOLECULE
mol_data/noopt/geoms/mol2/4af12ea-12ah-6fl.out
 45 47 0 0 0
SMALL
GASTEIGER

@<TRIPOS>ATOM
      1 C           0.0509    0.0309    0.0002 C.ar    1  LIG1       -0.0609
      2 C           1.4592    0.0309    0.0002 C.ar    1  LIG1       -0.0475
      3 C          -0.6045    1.2792    0.0002 C.ar    1  LIG1       -0.0583
      4 C           2.1849    1.2200   -0.0004 C.ar    1  LIG1        0.0599
      5 H           1.9850   -0.9213    0.0004 H       1  LIG1        0.0626
      6 C           0.1195    2.4666   -0.0004 C.ar    1  LIG1       -0.0195
      7 C           1.5181    2.4458   -0.0008 C.ar    1  LIG1        0.1275
      8 H          -0.4090    3.4165   -0.0003 H       1  LIG1        0.0654
      9 H          -1.9035    1.3287    0.0016 H       1  LIG1        0.0619
     10 H          -0.5708   -1.1108    0.0005 H       1  LIG1        0.0618
     11 O           2.1896    3.5590   -0.0012 O.3     1  LIG1       -0.5061
     12 H           1.5802    4.3008   -0.0013 H       1  LIG1        0.2922
     13 C           3.4844    1.1831   -0.0005 C.ar    1  LIG1        0.1545
     14 C           4.4399    0.1882    0.0142 C.ar    1  LIG1        0.0711
     15 C           5.7279    0.8500    0.0034 C.ar    1  LIG1        0.0002
     16 C           5.4738    2.2059   -0.0172 C.ar    1  LIG1        0.1376
     17 O           4.0977    2.4365   -0.0202 O.2     1  LIG1       -0.4534
     18 C           4.2495   -1.0976    0.0341 C.1     1  LIG1       -0.0658
     19 C           4.0736   -2.2857    0.0524 C.1     1  LIG1       -0.1138
     20 H           3.9169   -3.3441    0.0687 H       1  LIG1        0.1232
     21 H           6.8846    0.2567    0.0119 H       1  LIG1        0.0668
     22 C           6.1998    3.2842   -0.0341 C.2     1  LIG1        0.0299
     23 C           7.5515    3.5594   -0.0468 C.2     1  LIG1       -0.0259
     24 C           7.6810    5.0016   -0.0633 C.2     1  LIG1        0.0733
     25 C           6.3992    5.5122   -0.0596 C.2     1  LIG1        0.2117
     26 O           5.4686    4.4728   -0.0418 O.2     1  LIG1       -0.2851
     27 H           8.5364    2.7109   -0.0447 H       1  LIG1        0.0644
     28 N           8.8009    5.6617   -0.0785 N.pl3   1  LIG1       -0.3550
     29 H           9.4979    5.1247   -0.5538 H       1  LIG1        0.1424
     30 H           8.6688    6.5315   -0.5538 H       1  LIG1        0.1424
     31 C           4.4788    6.8649   -0.0734 C.ar    1  LIG1        0.2237
     32 C           5.8762    6.7023   -0.0686 C.ar    1  LIG1        0.0882
     33 C           6.6803    7.8436   -0.0734 C.ar    1  LIG1       -0.0024
     34 C           6.0670    9.0976   -0.0830 C.ar    1  LIG1        0.1390
     35 C           4.6614    9.1576   -0.0873 C.ar    1  LIG1        0.0730
     36 N           3.8704    8.0669   -0.0826 N.ar    1  LIG1       -0.2172
     37 H           7.7760    7.7560   -0.0709 H       1  LIG1        0.0663
     38 H           4.0442   10.3017   -0.0961 H       1  LIG1        0.0868
     39 O           3.6885    5.8326   -0.0691 O.3     1  LIG1       -0.4919
     40 H           4.2123    5.0281   -0.0680 H       1  LIG1        0.2937
     41 O           6.7715   10.1902   -0.0880 O.3     1  LIG1       -0.4936
     42 C           8.1630    9.8608   -0.0899 C.3     1  LIG1        0.0789
     43 H           8.7425   10.7604   -0.0942 H       1  LIG1        0.0660
     44 H           8.3959    9.2908    0.7852 H       1  LIG1        0.0660
     45 H           8.3921    9.2849   -0.9621 H       1  LIG1        0.0660
@<TRIPOS>BOND
     1    45    42    1
     2    30    28    1
     3    29    28    1
     4    38    35    1
     5    43    42    1
     6    42    41    1
     7    42    44    1
     8    41    34    1
     9    35    34   ar
    10    35    36   ar
    11    34    33   ar
    12    36    31   ar
    13    28    24    1
    14    33    37    1
    15    33    32   ar
    16    31    39    1
    17    31    32   ar
    18    39    40    1
    19    32    25    1
    20    24    25    2
    21    24    23    1
    22    25    26    1
    23    23    27    1
    24    23    22    2
    25    22    16    1
    26    17    16   ar
    27    17    13   ar
    28    16    15   ar
    29    12    11    1
    30    11     7    1
    31     7     4   ar
    32     7     6   ar
    33    13     4    1
    34    13    14   ar
    35     4     2   ar
    36     6     8    1
    37     6     3   ar
    38     2     1   ar
    39     2     5    1
    40     3     1   ar
    41     3     9    1
    42     1    10    1
    43    15    21    1
    44    15    14   ar
    45    14    18    1
    46    18    19    3
    47    19    20    1
