@<TRIPOS>MOLECULE
mol_data/noopt/geoms/mol2/4af4af-.out
 24 25 0 0 0
SMALL
GASTEIGER

@<TRIPOS>ATOM
      1 C           0.0509    0.0309    0.0002 C.ar    1  LIG1       -0.0610
      2 C           1.4592    0.0309    0.0002 C.ar    1  LIG1       -0.0505
      3 C          -0.6045    1.2792    0.0002 C.ar    1  LIG1       -0.0583
      4 C           2.1849    1.2200   -0.0004 C.ar    1  LIG1        0.0237
      5 H           1.9850   -0.9213    0.0004 H       1  LIG1        0.0625
      6 C           0.1195    2.4666   -0.0004 C.ar    1  LIG1       -0.0196
      7 C           1.5181    2.4458   -0.0008 C.ar    1  LIG1        0.1245
      8 H          -0.4090    3.4165   -0.0003 H       1  LIG1        0.0654
      9 H          -1.9035    1.3287    0.0016 H       1  LIG1        0.0619
     10 H          -0.5708   -1.1108    0.0005 H       1  LIG1        0.0618
     11 O           2.1896    3.5590   -0.0012 O.3     1  LIG1       -0.5062
     12 H           1.5802    4.3008   -0.0013 H       1  LIG1        0.2922
     13 C           4.2212    2.3851    0.0002 C.ar    1  LIG1       -0.0537
     14 C           5.6264    2.2916    0.0016 C.ar    1  LIG1       -0.0577
     15 C           3.4843    1.1831   -0.0005 C.ar    1  LIG1       -0.0110
     16 C           6.2715    1.0569    0.0017 C.ar    1  LIG1       -0.0201
     17 H           6.2143    3.2067    0.0024 H       1  LIG1        0.0619
     18 C           4.1278   -0.0498   -0.0004 C.ar    1  LIG1       -0.0124
     19 C           5.5247   -0.1219    0.0006 C.ar    1  LIG1        0.1174
     20 H           3.5374   -0.9625   -0.0009 H       1  LIG1        0.0660
     21 H           7.5706    1.0074    0.0029 H       1  LIG1        0.0654
     22 H           3.6767    3.5656   -0.0001 H       1  LIG1        0.0624
     23 O           6.1208   -1.2773    0.0008 O.3     1  LIG1       -0.5067
     24 H           7.0719   -1.1471    0.0009 H       1  LIG1        0.2921
@<TRIPOS>BOND
     1    12    11    1
     2    11     7    1
     3    20    18    1
     4     7     4   ar
     5     7     6   ar
     6    15    18   ar
     7    15     4    1
     8    15    13   ar
     9    18    19   ar
    10     4     2   ar
    11     6     8    1
    12     6     3   ar
    13    22    13    1
    14    13    14   ar
    15     1     3   ar
    16     1     2   ar
    17     1    10    1
    18     3     9    1
    19     2     5    1
    20    19    23    1
    21    19    16   ar
    22    23    24    1
    23    14    16   ar
    24    14    17    1
    25    16    21    1
