@<TRIPOS>MOLECULE
mol_data/noopt/geoms/mol2/4af6el-6he12hi12ae13ea6da-6ld-.out
 96 103 0 0 0
SMALL
GASTEIGER

@<TRIPOS>ATOM
      1 C           0.0509    0.0309    0.0002 C.ar    1  LIG1       -0.0610
      2 C           1.4592    0.0309    0.0002 C.ar    1  LIG1       -0.0505
      3 C          -0.6045    1.2792    0.0002 C.ar    1  LIG1       -0.0583
      4 C           2.1849    1.2200   -0.0004 C.ar    1  LIG1        0.0263
      5 H           1.9850   -0.9213    0.0004 H       1  LIG1        0.0625
      6 C           0.1195    2.4666   -0.0004 C.ar    1  LIG1       -0.0196
      7 C           1.5181    2.4458   -0.0008 C.ar    1  LIG1        0.1246
      8 H          -0.4090    3.4165   -0.0003 H       1  LIG1        0.0654
      9 H          -1.9035    1.3287    0.0016 H       1  LIG1        0.0619
     10 H          -0.5708   -1.1108    0.0005 H       1  LIG1        0.0618
     11 O           2.1896    3.5590   -0.0012 O.3     1  LIG1       -0.5062
     12 H           1.5802    4.3008   -0.0013 H       1  LIG1        0.2922
     13 C           4.2297    2.3762   -0.0216 C.ar    1  LIG1        0.1219
     14 C           3.4844    1.1831   -0.0005 C.ar    1  LIG1        0.0229
     15 C           4.1715   -0.0320    0.0205 C.ar    1  LIG1       -0.0073
     16 C           5.5674   -0.0147    0.0195 C.ar    1  LIG1        0.1467
     17 C           6.2235    1.2297   -0.0026 C.ar    1  LIG1        0.1172
     18 N           5.5764    2.4113   -0.0228 N.ar    1  LIG1       -0.2340
     19 H           3.6233   -0.9846    0.0362 H       1  LIG1        0.0662
     20 C           3.6351    3.5321   -0.0414 C.1     1  LIG1       -0.0492
     21 C           3.0858    4.6002   -0.0598 C.1     1  LIG1       -0.1124
     22 H           2.5965    5.5516   -0.0761 H       1  LIG1        0.1232
     23 O           6.2532   -1.1190    0.0383 O.3     1  LIG1       -0.4929
     24 C           5.3598   -2.2355    0.0451 C.3     1  LIG1        0.0789
     25 H           5.9247   -3.1442    0.0605 H       1  LIG1        0.0660
     26 H           4.7365   -2.1884    0.9136 H       1  LIG1        0.0660
     27 H           4.7497   -2.2096   -0.8335 H       1  LIG1        0.0660
     28 C           8.1685    2.5470   -0.0052 C.ar    1  LIG1        0.1264
     29 C           7.5217    1.2976   -0.0044 C.ar    1  LIG1        0.0447
     30 C           8.3045    0.1416   -0.0052 C.ar    1  LIG1       -0.0316
     31 C           9.6944    0.2713   -0.0069 C.ar    1  LIG1        0.0545
     32 C          10.2482    1.5647   -0.0078 C.ar    1  LIG1        0.1253
     33 N           9.5080    2.6905   -0.0068 N.ar    1  LIG1       -0.2274
     34 H           7.8348   -0.8522   -0.0056 H       1  LIG1        0.0638
     35 N           7.4828    3.6515   -0.0044 N.pl3   1  LIG1       -0.3426
     36 H           8.0005    4.3656   -0.4756 H       1  LIG1        0.1437
     37 H           6.6132    3.5043   -0.4756 H       1  LIG1        0.1437
     38 C          10.4669   -0.7743   -0.0079 C.1     1  LIG1       -0.0674
     39 C          11.1807   -1.7404   -0.0088 C.1     1  LIG1       -0.1138
     40 H          11.8165   -2.6010   -0.0096 H       1  LIG1        0.1232
     41 C          11.5367    1.7369   -0.0093 C.ar    1  LIG1        0.1760
     42 C          12.6396    0.9083   -0.0104 C.ar    1  LIG1        0.0762
     43 C          13.8046    1.7683   -0.0119 C.ar    1  LIG1        0.0197
     44 C          13.3361    3.0660   -0.0117 C.ar    1  LIG1        0.1754
     45 O          11.9408    3.0727   -0.0102 O.2     1  LIG1       -0.4480
     46 N          12.6582   -0.3916   -0.0102 N.pl3   1  LIG1       -0.3548
     47 H          11.8465   -0.7367   -0.4815 H       1  LIG1        0.1424
     48 H          13.4793   -0.7133   -0.4815 H       1  LIG1        0.1424
     49 C          15.0419    1.3683   -0.0133 C.3     1  LIG1       -0.0342
     50 H          15.6505    2.0896    0.4907 H       1  LIG1        0.0279
     51 H          15.3803    1.2589   -1.0225 H       1  LIG1        0.0279
     52 H          15.1129    0.4271    0.4907 H       1  LIG1        0.0279
     53 C          13.8796    4.2470   -0.0125 C.ar    1  LIG1        0.1722
     54 C          15.1694    4.7359    0.0017 C.ar    1  LIG1        0.0034
     55 C          15.0657    6.1802   -0.0098 C.ar    1  LIG1        0.0726
     56 C          13.7187    6.4782   -0.0303 C.ar    1  LIG1        0.1684
     57 O          12.9670    5.3027   -0.0325 O.2     1  LIG1       -0.4489
     58 H          16.2777    4.0567    0.0216 H       1  LIG1        0.0669
     59 C          16.0650    7.0117   -0.0020 C.1     1  LIG1       -0.0658
     60 C          16.9884    7.7800    0.0053 C.1     1  LIG1       -0.1138
     61 H          17.8109    8.4643    0.0117 H       1  LIG1        0.1232
     62 C          13.0114    7.5688   -0.0476 C.ar    1  LIG1        0.0993
     63 C          13.3996    8.8716   -0.0596 C.ar    1  LIG1        0.0536
     64 C          12.2120    9.6715   -0.0758 C.ar    1  LIG1       -0.0202
     65 C          11.1503    8.8224   -0.0746 C.ar    1  LIG1        0.0509
     66 N          11.6353    7.5341   -0.0569 N.ar    1  LIG1       -0.3507
     67 H          11.0799    6.7098   -0.0523 H       1  LIG1        0.1660
     68 C          14.6244    9.3072   -0.0555 C.1     1  LIG1       -0.0674
     69 C          15.7562    9.7096   -0.0518 C.1     1  LIG1       -0.1138
     70 H          16.7643   10.0682   -0.0484 H       1  LIG1        0.1232
     71 H          12.1554   10.9702   -0.0895 H       1  LIG1        0.0651
     72 C           8.9464    8.0104   -0.1133 C.ar    1  LIG1        0.1498
     73 C           9.8738    9.0680   -0.0860 C.ar    1  LIG1        0.0342
     74 C           9.3910   10.3778   -0.0713 C.ar    1  LIG1       -0.0479
     75 C           8.0106   10.5854   -0.0844 C.ar    1  LIG1       -0.0348
     76 C           7.1630    9.4628   -0.1119 C.ar    1  LIG1        0.0776
     77 N           7.6117    8.1924   -0.1262 N.ar    1  LIG1       -0.2355
     78 H          10.0852   11.2298   -0.0510 H       1  LIG1        0.0626
     79 N           9.7009    5.6832   -0.1404 N.1     1  LIG1       -0.1893
     80 C           9.3473    6.7738   -0.1277 C.1     1  LIG1        0.1198
     81 H           7.5113   11.7856   -0.0718 H       1  LIG1        0.0639
     82 C           5.0317    8.4758   -0.1530 C.ar    1  LIG1        0.2239
     83 C           5.8708    9.6047   -0.1249 C.ar    1  LIG1        0.0631
     84 C           5.2841   10.8714   -0.1111 C.ar    1  LIG1       -0.0286
     85 C           3.8915   10.9671   -0.1259 C.ar    1  LIG1        0.0707
     86 C           3.1371    9.7799   -0.1542 C.ar    1  LIG1        0.0488
     87 N           3.6866    8.5498   -0.1676 N.ar    1  LIG1       -0.2195
     88 H           5.9074   11.7765   -0.0902 H       1  LIG1        0.0639
     89 H           1.8377    9.8172   -0.1687 H       1  LIG1        0.0844
     90 O           5.5309    7.2755   -0.1667 O.3     1  LIG1       -0.4792
     91 C           4.4695    6.3172   -0.1717 C.3     1  LIG1        0.0804
     92 H           4.8808    5.3295   -0.1831 H       1  LIG1        0.0660
     93 H           3.8703    6.4439    0.7057 H       1  LIG1        0.0660
     94 H           3.8632    6.4611   -1.0415 H       1  LIG1        0.0660
     95 N           2.7729   13.1429   -0.1039 N.1     1  LIG1       -0.1908
     96 C           3.2972   12.1232   -0.1142 C.1     1  LIG1        0.1007
@<TRIPOS>BOND
     1    94    91    1
     2    51    49    1
     3    27    24    1
     4    48    46    1
     5    47    46    1
     6    37    35    1
     7    36    35    1
     8    92    91    1
     9    91    90    1
    10    91    93    1
    11    89    86    1
    12    87    86   ar
    13    87    82   ar
    14    90    82    1
    15    86    85   ar
    16    82    83   ar
    17    79    80    3
    18    80    72    1
    19    77    72   ar
    20    77    76   ar
    21    85    96    1
    22    85    84   ar
    23    83    76    1
    24    83    84   ar
    25    96    95    3
    26    72    73   ar
    27    76    75   ar
    28    84    88    1
    29    71    64    1
    30    73    65    1
    31    73    74   ar
    32    75    81    1
    33    75    74   ar
    34    22    21    1
    35    64    65   ar
    36    64    63   ar
    37    65    66   ar
    38    74    78    1
    39    21    20    3
    40    63    68    1
    41    63    62   ar
    42    66    67    1
    43    66    62   ar
    44    68    69    3
    45    69    70    1
    46    62    56    1
    47    20    13    1
    48    57    56   ar
    49    57    53   ar
    50    56    55   ar
    51    18    13   ar
    52    18    17   ar
    53    13    14   ar
    54    49    43    1
    55    49    52    1
    56    49    50    1
    57    53    44    1
    58    53    54   ar
    59    43    44   ar
    60    43    42   ar
    61    44    45   ar
    62    42    46    1
    63    42    41   ar
    64    45    41   ar
    65    55    59    1
    66    55    54   ar
    67    40    39    1
    68    41    32    1
    69    39    38    3
    70    38    31    1
    71    32    31   ar
    72    32    33   ar
    73    31    30   ar
    74    33    28   ar
    75    34    30    1
    76    30    29   ar
    77    28    29   ar
    78    28    35    1
    79    29    17    1
    80    17    16   ar
    81    59    60    3
    82    12    11    1
    83    11     7    1
    84     7     6   ar
    85     7     4   ar
    86    14     4    1
    87    14    15   ar
    88     6     8    1
    89     6     3   ar
    90     4     2   ar
    91     3     1   ar
    92     3     9    1
    93     1     2   ar
    94     1    10    1
    95     2     5    1
    96    54    58    1
    97    60    61    1
    98    16    15   ar
    99    16    23    1
   100    15    19    1
   101    23    24    1
   102    24    25    1
   103    24    26    1
