@<TRIPOS>MOLECULE
mol_data/noopt/geoms/mol2/4ag4ag4ag-4ag-.out
 46 49 0 0 0
SMALL
GASTEIGER

@<TRIPOS>ATOM
      1 C           0.0509    0.0309    0.0002 C.ar    1  LIG1       -0.0611
      2 C           1.4592    0.0309    0.0002 C.ar    1  LIG1       -0.0530
      3 C          -0.6045    1.2792    0.0002 C.ar    1  LIG1       -0.0607
      4 C           2.1849    1.2200   -0.0004 C.ar    1  LIG1       -0.0047
      5 H           1.9850   -0.9213    0.0004 H       1  LIG1        0.0624
      6 C           0.1195    2.4666   -0.0004 C.ar    1  LIG1       -0.0480
      7 C           1.5181    2.4458   -0.0008 C.ar    1  LIG1        0.0124
      8 H          -0.4090    3.4165   -0.0003 H       1  LIG1        0.0629
      9 H          -1.9035    1.3287    0.0016 H       1  LIG1        0.0618
     10 H          -0.5708   -1.1108    0.0005 H       1  LIG1        0.0618
     11 S           2.1896    3.5589   -0.0012 S.3     1  LIG1       -0.1420
     12 H           1.3580    4.5712   -0.0013 H       1  LIG1        0.1071
     13 C           4.1518   -0.0588    0.0002 C.ar    1  LIG1       -0.0534
     14 C           5.5600   -0.0451    0.0016 C.ar    1  LIG1       -0.0524
     15 C           3.4843    1.1831   -0.0005 C.ar    1  LIG1       -0.0158
     16 C           6.2742    1.1510    0.0017 C.ar    1  LIG1       -0.0047
     17 H           6.0950   -0.9922    0.0024 H       1  LIG1        0.0624
     18 C           4.1968    2.3775   -0.0004 C.ar    1  LIG1       -0.0402
     19 C           5.5955    2.3702    0.0006 C.ar    1  LIG1        0.0130
     20 H           3.6591    3.3222   -0.0009 H       1  LIG1        0.0635
     21 H           3.5412   -1.2064   -0.0001 H       1  LIG1        0.0624
     22 S           6.2561    3.4898    0.0008 S.3     1  LIG1       -0.1420
     23 H           5.4148    4.4939    0.0009 H       1  LIG1        0.1071
     24 C           8.2534   -0.1085    0.0256 C.ar    1  LIG1       -0.0534
     25 C           9.6614   -0.0811    0.0275 C.ar    1  LIG1       -0.0524
     26 C           7.5739    1.1267    0.0029 C.ar    1  LIG1       -0.0158
     27 C          10.3639    1.1216    0.0070 C.ar    1  LIG1       -0.0047
     28 H          10.2055   -1.0228    0.0451 H       1  LIG1        0.0624
     29 C           8.2747    2.3277   -0.0175 C.ar    1  LIG1       -0.0402
     30 C           9.6735    2.3341   -0.0157 C.ar    1  LIG1        0.0130
     31 H           7.7279    3.2670   -0.0348 H       1  LIG1        0.0635
     32 H           7.6539   -1.2618    0.0451 H       1  LIG1        0.0624
     33 S          10.3232    3.4598   -0.0347 S.3     1  LIG1       -0.1420
     34 H           9.4722    4.4558   -0.0411 H       1  LIG1        0.1071
     35 C          12.3552   -0.1185    0.0326 C.ar    1  LIG1       -0.0539
     36 C          13.7629   -0.0775    0.0357 C.ar    1  LIG1       -0.0602
     37 C          11.6638    1.1100    0.0093 C.ar    1  LIG1       -0.0158
     38 C          14.4537    1.1320    0.0158 C.ar    1  LIG1       -0.0485
     39 H          14.3162   -1.0138    0.0537 H       1  LIG1        0.0618
     40 C          12.3529    2.3178   -0.0105 C.ar    1  LIG1       -0.0408
     41 C          13.7516    2.3377   -0.0075 C.ar    1  LIG1        0.0053
     42 H          11.7970    3.2517   -0.0283 H       1  LIG1        0.0635
     43 H          15.7537    1.1330    0.0192 H       1  LIG1        0.0628
     44 H          11.7669   -1.2777    0.0516 H       1  LIG1        0.0624
     45 S          14.3903    3.4697   -0.0260 S.3     1  LIG1       -0.1426
     46 H          13.5298    4.4574   -0.0322 H       1  LIG1        0.1071
@<TRIPOS>BOND
     1    34    33    1
     2    31    29    1
     3    33    30    1
     4    46    45    1
     5    42    40    1
     6    45    41    1
     7    29    30   ar
     8    29    26   ar
     9    30    27   ar
    10    40    41   ar
    11    40    37   ar
    12    41    38   ar
    13    12    11    1
    14    11     7    1
    15    20    18    1
    16     7     6   ar
    17     7     4   ar
    18    15    18   ar
    19    15     4    1
    20    15    13   ar
    21    18    19   ar
    22     6     8    1
    23     6     3   ar
    24     4     2   ar
    25    21    13    1
    26     1     2   ar
    27     1     3   ar
    28     1    10    1
    29     2     5    1
    30     3     9    1
    31    13    14   ar
    32    19    22    1
    33    19    16   ar
    34    22    23    1
    35    14    16   ar
    36    14    17    1
    37    16    26    1
    38    26    24   ar
    39    27    37    1
    40    27    25   ar
    41    37    35   ar
    42    38    43    1
    43    38    36   ar
    44    24    25   ar
    45    24    32    1
    46    25    28    1
    47    35    36   ar
    48    35    44    1
    49    36    39    1
