@<TRIPOS>MOLECULE
mol_data/noopt/geoms/mol2/4ag4ag4ag-4ag.out
 46 49 0 0 0
SMALL
GASTEIGER

@<TRIPOS>ATOM
      1 C           0.0509    0.0309    0.0002 C.ar    1  LIG1       -0.0611
      2 C           1.4592    0.0309    0.0002 C.ar    1  LIG1       -0.0530
      3 C          -0.6045    1.2792    0.0002 C.ar    1  LIG1       -0.0607
      4 C           2.1849    1.2200   -0.0004 C.ar    1  LIG1       -0.0047
      5 H           1.9850   -0.9213    0.0004 H       1  LIG1        0.0624
      6 C           0.1195    2.4666   -0.0004 C.ar    1  LIG1       -0.0480
      7 C           1.5181    2.4458   -0.0008 C.ar    1  LIG1        0.0124
      8 H          -0.4090    3.4165   -0.0003 H       1  LIG1        0.0629
      9 H          -1.9035    1.3287    0.0016 H       1  LIG1        0.0618
     10 H          -0.5708   -1.1108    0.0005 H       1  LIG1        0.0618
     11 S           2.1896    3.5589   -0.0012 S.3     1  LIG1       -0.1420
     12 H           1.3580    4.5712   -0.0013 H       1  LIG1        0.1071
     13 C           4.1518   -0.0588    0.0002 C.ar    1  LIG1       -0.0534
     14 C           5.5600   -0.0451    0.0016 C.ar    1  LIG1       -0.0524
     15 C           3.4843    1.1831   -0.0005 C.ar    1  LIG1       -0.0158
     16 C           6.2742    1.1510    0.0017 C.ar    1  LIG1       -0.0047
     17 H           6.0950   -0.9922    0.0024 H       1  LIG1        0.0624
     18 C           4.1968    2.3775   -0.0004 C.ar    1  LIG1       -0.0402
     19 C           5.5955    2.3702    0.0006 C.ar    1  LIG1        0.0130
     20 H           3.6591    3.3222   -0.0009 H       1  LIG1        0.0635
     21 H           3.5412   -1.2064   -0.0001 H       1  LIG1        0.0624
     22 S           6.2561    3.4898    0.0008 S.3     1  LIG1       -0.1420
     23 H           5.4148    4.4939    0.0009 H       1  LIG1        0.1071
     24 C           8.2534   -0.1085    0.0256 C.ar    1  LIG1       -0.0534
     25 C           9.6614   -0.0811    0.0275 C.ar    1  LIG1       -0.0524
     26 C           7.5739    1.1267    0.0029 C.ar    1  LIG1       -0.0158
     27 C          10.3639    1.1216    0.0070 C.ar    1  LIG1       -0.0047
     28 H          10.2055   -1.0228    0.0451 H       1  LIG1        0.0624
     29 C           8.2747    2.3277   -0.0175 C.ar    1  LIG1       -0.0402
     30 C           9.6735    2.3341   -0.0157 C.ar    1  LIG1        0.0130
     31 H           7.7279    3.2670   -0.0348 H       1  LIG1        0.0635
     32 H           7.6539   -1.2618    0.0451 H       1  LIG1        0.0624
     33 S          10.3232    3.4598   -0.0347 S.3     1  LIG1       -0.1420
     34 H           9.4722    4.4558   -0.0411 H       1  LIG1        0.1071
     35 C          12.3552   -0.1187    0.0113 C.ar    1  LIG1       -0.0539
     36 C          13.7629   -0.0777    0.0153 C.ar    1  LIG1       -0.0602
     37 C          11.6638    1.1100    0.0093 C.ar    1  LIG1       -0.0158
     38 C          14.4537    1.1320    0.0166 C.ar    1  LIG1       -0.0485
     39 H          14.3162   -1.0142    0.0171 H       1  LIG1        0.0618
     40 C          12.3529    2.3179    0.0106 C.ar    1  LIG1       -0.0408
     41 C          13.7515    2.3379    0.0142 C.ar    1  LIG1        0.0053
     42 H          11.7970    3.2520    0.0092 H       1  LIG1        0.0635
     43 H          15.7537    1.1329    0.0202 H       1  LIG1        0.0628
     44 H          11.7670   -1.2780    0.0100 H       1  LIG1        0.0624
     45 S          14.3903    3.4701    0.0156 S.3     1  LIG1       -0.1426
     46 H          13.5296    4.4577    0.0160 H       1  LIG1        0.1071
@<TRIPOS>BOND
     1    34    33    1
     2    31    29    1
     3    33    30    1
     4    29    30   ar
     5    29    26   ar
     6    30    27   ar
     7    12    11    1
     8    11     7    1
     9    20    18    1
    10     7     4   ar
    11     7     6   ar
    12    15    18   ar
    13    15     4    1
    14    15    13   ar
    15    18    19   ar
    16     4     2   ar
    17     6     8    1
    18     6     3   ar
    19    21    13    1
    20     2     1   ar
    21     2     5    1
    22     3     1   ar
    23     3     9    1
    24     1    10    1
    25    13    14   ar
    26    19    22    1
    27    19    16   ar
    28    22    23    1
    29    14    16   ar
    30    14    17    1
    31    16    26    1
    32    26    24   ar
    33    27    37    1
    34    27    25   ar
    35    42    40    1
    36    37    40   ar
    37    37    35   ar
    38    44    35    1
    39    40    41   ar
    40    35    36   ar
    41    41    45    1
    42    41    38   ar
    43    36    38   ar
    44    36    39    1
    45    45    46    1
    46    38    43    1
    47    24    25   ar
    48    24    32    1
    49    25    28    1
