@<TRIPOS>MOLECULE
mol_data/noopt/geoms/mol2/4ag4ag-4ag-.out
 35 37 0 0 0
SMALL
GASTEIGER

@<TRIPOS>ATOM
      1 C           0.0509    0.0309    0.0002 C.ar    1  LIG1       -0.0611
      2 C           1.4592    0.0309    0.0002 C.ar    1  LIG1       -0.0530
      3 C          -0.6045    1.2792    0.0002 C.ar    1  LIG1       -0.0607
      4 C           2.1849    1.2200   -0.0004 C.ar    1  LIG1       -0.0047
      5 H           1.9850   -0.9213    0.0004 H       1  LIG1        0.0624
      6 C           0.1195    2.4666   -0.0004 C.ar    1  LIG1       -0.0480
      7 C           1.5181    2.4458   -0.0008 C.ar    1  LIG1        0.0124
      8 H          -0.4090    3.4165   -0.0003 H       1  LIG1        0.0629
      9 H          -1.9035    1.3287    0.0016 H       1  LIG1        0.0618
     10 H          -0.5708   -1.1108    0.0005 H       1  LIG1        0.0618
     11 S           2.1896    3.5589   -0.0012 S.3     1  LIG1       -0.1420
     12 H           1.3580    4.5712   -0.0013 H       1  LIG1        0.1071
     13 C           4.1518   -0.0586    0.0215 C.ar    1  LIG1       -0.0534
     14 C           5.5600   -0.0449    0.0220 C.ar    1  LIG1       -0.0524
     15 C           3.4843    1.1831   -0.0005 C.ar    1  LIG1       -0.0158
     16 C           6.2742    1.1510    0.0009 C.ar    1  LIG1       -0.0047
     17 H           6.0951   -0.9918    0.0390 H       1  LIG1        0.0624
     18 C           4.1968    2.3773   -0.0216 C.ar    1  LIG1       -0.0402
     19 C           5.5955    2.3701   -0.0212 C.ar    1  LIG1        0.0130
     20 H           3.6591    3.3219   -0.0383 H       1  LIG1        0.0635
     21 H           3.5412   -1.2061    0.0416 H       1  LIG1        0.0624
     22 S           6.2561    3.4895   -0.0408 S.3     1  LIG1       -0.1420
     23 H           5.4148    4.4936   -0.0474 H       1  LIG1        0.1071
     24 C           8.2534   -0.1084    0.0245 C.ar    1  LIG1       -0.0539
     25 C           9.6614   -0.0811    0.0261 C.ar    1  LIG1       -0.0602
     26 C           7.5739    1.1267    0.0018 C.ar    1  LIG1       -0.0158
     27 C          10.3639    1.1217    0.0055 C.ar    1  LIG1       -0.0485
     28 H          10.2056   -1.0227    0.0436 H       1  LIG1        0.0618
     29 C           8.2747    2.3278   -0.0187 C.ar    1  LIG1       -0.0408
     30 C           9.6734    2.3341   -0.0171 C.ar    1  LIG1        0.0053
     31 H           7.7279    3.2671   -0.0358 H       1  LIG1        0.0635
     32 H          11.6639    1.1101    0.0076 H       1  LIG1        0.0628
     33 H           7.6539   -1.2618    0.0440 H       1  LIG1        0.0624
     34 S          10.3232    3.4599   -0.0362 S.3     1  LIG1       -0.1426
     35 H           9.4722    4.4559   -0.0426 H       1  LIG1        0.1071
@<TRIPOS>BOND
     1    23    22    1
     2    35    34    1
     3    22    19    1
     4    20    18    1
     5    34    30    1
     6    31    29    1
     7    18    19   ar
     8    18    15   ar
     9    19    16   ar
    10    29    30   ar
    11    29    26   ar
    12    30    27   ar
    13    12    11    1
    14    11     7    1
    15     7     4   ar
    16     7     6   ar
    17    15     4    1
    18    15    13   ar
    19     4     2   ar
    20     6     8    1
    21     6     3   ar
    22     1     2   ar
    23     1     3   ar
    24     1    10    1
    25     2     5    1
    26     3     9    1
    27    16    26    1
    28    16    14   ar
    29    26    24   ar
    30    27    32    1
    31    27    25   ar
    32    13    14   ar
    33    13    21    1
    34    14    17    1
    35    24    25   ar
    36    24    33    1
    37    25    28    1
