@<TRIPOS>MOLECULE
mol_data/noopt/geoms/mol2/4ag4ag4ag.out
 35 37 0 0 0
SMALL
GASTEIGER

@<TRIPOS>ATOM
      1 C           0.0509    0.0309    0.0002 C.ar    1  LIG1       -0.0611
      2 C           1.4592    0.0309    0.0002 C.ar    1  LIG1       -0.0530
      3 C          -0.6045    1.2792    0.0002 C.ar    1  LIG1       -0.0607
      4 C           2.1849    1.2200   -0.0004 C.ar    1  LIG1       -0.0047
      5 H           1.9850   -0.9213    0.0004 H       1  LIG1        0.0624
      6 C           0.1195    2.4666   -0.0004 C.ar    1  LIG1       -0.0480
      7 C           1.5181    2.4458   -0.0008 C.ar    1  LIG1        0.0124
      8 H          -0.4090    3.4165   -0.0003 H       1  LIG1        0.0629
      9 H          -1.9035    1.3287    0.0016 H       1  LIG1        0.0618
     10 H          -0.5708   -1.1108    0.0005 H       1  LIG1        0.0618
     11 S           2.1896    3.5589   -0.0012 S.3     1  LIG1       -0.1420
     12 H           1.3580    4.5712   -0.0013 H       1  LIG1        0.1071
     13 C           4.1518   -0.0588    0.0002 C.ar    1  LIG1       -0.0534
     14 C           5.5600   -0.0451    0.0016 C.ar    1  LIG1       -0.0524
     15 C           3.4843    1.1831   -0.0005 C.ar    1  LIG1       -0.0158
     16 C           6.2742    1.1510    0.0017 C.ar    1  LIG1       -0.0047
     17 H           6.0950   -0.9922    0.0024 H       1  LIG1        0.0624
     18 C           4.1968    2.3775   -0.0004 C.ar    1  LIG1       -0.0402
     19 C           5.5955    2.3702    0.0006 C.ar    1  LIG1        0.0130
     20 H           3.6591    3.3222   -0.0009 H       1  LIG1        0.0635
     21 H           3.5412   -1.2064   -0.0001 H       1  LIG1        0.0624
     22 S           6.2561    3.4898    0.0008 S.3     1  LIG1       -0.1420
     23 H           5.4148    4.4939    0.0009 H       1  LIG1        0.1071
     24 C           8.2534   -0.1087    0.0043 C.ar    1  LIG1       -0.0539
     25 C           9.6614   -0.0814    0.0071 C.ar    1  LIG1       -0.0602
     26 C           7.5739    1.1267    0.0029 C.ar    1  LIG1       -0.0158
     27 C          10.3639    1.1216    0.0079 C.ar    1  LIG1       -0.0485
     28 H          10.2056   -1.0232    0.0084 H       1  LIG1        0.0618
     29 C           8.2747    2.3279    0.0036 C.ar    1  LIG1       -0.0408
     30 C           9.6734    2.3342    0.0060 C.ar    1  LIG1        0.0053
     31 H           7.7279    3.2674    0.0026 H       1  LIG1        0.0635
     32 H          11.6639    1.1099    0.0104 H       1  LIG1        0.0628
     33 H           7.6539   -1.2622    0.0034 H       1  LIG1        0.0624
     34 S          10.3232    3.4602    0.0069 S.3     1  LIG1       -0.1426
     35 H           9.4722    4.4561    0.0072 H       1  LIG1        0.1071
@<TRIPOS>BOND
     1    12    11    1
     2    11     7    1
     3    20    18    1
     4     7     4   ar
     5     7     6   ar
     6    15    18   ar
     7    15     4    1
     8    15    13   ar
     9    18    19   ar
    10     4     2   ar
    11     6     8    1
    12     6     3   ar
    13    21    13    1
    14     1     3   ar
    15     1     2   ar
    16     1    10    1
    17     3     9    1
    18     2     5    1
    19    13    14   ar
    20    19    22    1
    21    19    16   ar
    22    22    23    1
    23    14    16   ar
    24    14    17    1
    25    16    26    1
    26    31    29    1
    27    26    29   ar
    28    26    24   ar
    29    33    24    1
    30    29    30   ar
    31    24    25   ar
    32    30    34    1
    33    30    27   ar
    34    34    35    1
    35    25    27   ar
    36    25    28    1
    37    27    32    1
