@<TRIPOS>MOLECULE
mol_data/noopt/geoms/mol2/4ag4ag-.out
 24 25 0 0 0
SMALL
GASTEIGER

@<TRIPOS>ATOM
      1 C           0.0509    0.0309    0.0002 C.ar    1  LIG1       -0.0611
      2 C           1.4592    0.0309    0.0002 C.ar    1  LIG1       -0.0530
      3 C          -0.6045    1.2792    0.0002 C.ar    1  LIG1       -0.0607
      4 C           2.1849    1.2200   -0.0004 C.ar    1  LIG1       -0.0047
      5 H           1.9850   -0.9213    0.0004 H       1  LIG1        0.0624
      6 C           0.1195    2.4666   -0.0004 C.ar    1  LIG1       -0.0480
      7 C           1.5181    2.4458   -0.0008 C.ar    1  LIG1        0.0124
      8 H          -0.4090    3.4165   -0.0003 H       1  LIG1        0.0629
      9 H          -1.9035    1.3287    0.0016 H       1  LIG1        0.0618
     10 H          -0.5708   -1.1108    0.0005 H       1  LIG1        0.0618
     11 S           2.1896    3.5589   -0.0012 S.3     1  LIG1       -0.1420
     12 H           1.3580    4.5712   -0.0013 H       1  LIG1        0.1071
     13 C           4.1518   -0.0586    0.0215 C.ar    1  LIG1       -0.0539
     14 C           5.5600   -0.0449    0.0220 C.ar    1  LIG1       -0.0602
     15 C           3.4843    1.1831   -0.0005 C.ar    1  LIG1       -0.0158
     16 C           6.2742    1.1510    0.0009 C.ar    1  LIG1       -0.0485
     17 H           6.0951   -0.9918    0.0390 H       1  LIG1        0.0618
     18 C           4.1968    2.3773   -0.0216 C.ar    1  LIG1       -0.0408
     19 C           5.5955    2.3701   -0.0212 C.ar    1  LIG1        0.0053
     20 H           3.6591    3.3219   -0.0383 H       1  LIG1        0.0635
     21 H           7.5740    1.1267    0.0018 H       1  LIG1        0.0628
     22 H           3.5412   -1.2061    0.0416 H       1  LIG1        0.0624
     23 S           6.2561    3.4895   -0.0408 S.3     1  LIG1       -0.1426
     24 H           5.4148    4.4936   -0.0474 H       1  LIG1        0.1071
@<TRIPOS>BOND
     1    24    23    1
     2    23    19    1
     3    20    18    1
     4    18    19   ar
     5    18    15   ar
     6    19    16   ar
     7    12    11    1
     8    11     7    1
     9     7     4   ar
    10     7     6   ar
    11    15     4    1
    12    15    13   ar
    13     4     2   ar
    14     6     8    1
    15     6     3   ar
    16     1     3   ar
    17     1     2   ar
    18     1    10    1
    19     3     9    1
    20     2     5    1
    21    16    21    1
    22    16    14   ar
    23    13    14   ar
    24    13    22    1
    25    14    17    1
