@<TRIPOS>MOLECULE
mol_data/noopt/geoms/mol2/4ag4ag-4ag-4ag-.out
 46 49 0 0 0
SMALL
GASTEIGER

@<TRIPOS>ATOM
      1 C           0.0509    0.0309    0.0002 C.ar    1  LIG1       -0.0611
      2 C           1.4592    0.0309    0.0002 C.ar    1  LIG1       -0.0530
      3 C          -0.6045    1.2792    0.0002 C.ar    1  LIG1       -0.0607
      4 C           2.1849    1.2200   -0.0004 C.ar    1  LIG1       -0.0047
      5 H           1.9850   -0.9213    0.0004 H       1  LIG1        0.0624
      6 C           0.1195    2.4666   -0.0004 C.ar    1  LIG1       -0.0480
      7 C           1.5181    2.4458   -0.0008 C.ar    1  LIG1        0.0124
      8 H          -0.4090    3.4165   -0.0003 H       1  LIG1        0.0629
      9 H          -1.9035    1.3287    0.0016 H       1  LIG1        0.0618
     10 H          -0.5708   -1.1108    0.0005 H       1  LIG1        0.0618
     11 S           2.1896    3.5589   -0.0012 S.3     1  LIG1       -0.1420
     12 H           1.3580    4.5712   -0.0013 H       1  LIG1        0.1071
     13 C           4.1518   -0.0586    0.0215 C.ar    1  LIG1       -0.0534
     14 C           5.5600   -0.0449    0.0220 C.ar    1  LIG1       -0.0524
     15 C           3.4843    1.1831   -0.0005 C.ar    1  LIG1       -0.0158
     16 C           6.2742    1.1510    0.0009 C.ar    1  LIG1       -0.0047
     17 H           6.0951   -0.9918    0.0390 H       1  LIG1        0.0624
     18 C           4.1968    2.3773   -0.0216 C.ar    1  LIG1       -0.0402
     19 C           5.5955    2.3701   -0.0212 C.ar    1  LIG1        0.0130
     20 H           3.6591    3.3219   -0.0383 H       1  LIG1        0.0635
     21 H           3.5412   -1.2061    0.0416 H       1  LIG1        0.0624
     22 S           6.2561    3.4895   -0.0408 S.3     1  LIG1       -0.1420
     23 H           5.4148    4.4936   -0.0474 H       1  LIG1        0.1071
     24 C           8.2534   -0.1084    0.0245 C.ar    1  LIG1       -0.0534
     25 C           9.6614   -0.0811    0.0261 C.ar    1  LIG1       -0.0524
     26 C           7.5739    1.1267    0.0018 C.ar    1  LIG1       -0.0158
     27 C          10.3639    1.1217    0.0055 C.ar    1  LIG1       -0.0047
     28 H          10.2056   -1.0227    0.0436 H       1  LIG1        0.0624
     29 C           8.2747    2.3278   -0.0187 C.ar    1  LIG1       -0.0402
     30 C           9.6734    2.3341   -0.0171 C.ar    1  LIG1        0.0130
     31 H           7.7279    3.2671   -0.0358 H       1  LIG1        0.0635
     32 H           7.6539   -1.2618    0.0440 H       1  LIG1        0.0624
     33 S          10.3232    3.4599   -0.0362 S.3     1  LIG1       -0.1420
     34 H           9.4722    4.4559   -0.0426 H       1  LIG1        0.1071
     35 C          12.3552   -0.1184    0.0308 C.ar    1  LIG1       -0.0539
     36 C          13.7629   -0.0774    0.0336 C.ar    1  LIG1       -0.0602
     37 C          11.6638    1.1101    0.0076 C.ar    1  LIG1       -0.0158
     38 C          14.4537    1.1322    0.0136 C.ar    1  LIG1       -0.0485
     39 H          14.3162   -1.0137    0.0516 H       1  LIG1        0.0618
     40 C          12.3529    2.3179   -0.0124 C.ar    1  LIG1       -0.0408
     41 C          13.7515    2.3378   -0.0096 C.ar    1  LIG1        0.0053
     42 H          11.7970    3.2518   -0.0300 H       1  LIG1        0.0635
     43 H          15.7537    1.1332    0.0167 H       1  LIG1        0.0628
     44 H          11.7670   -1.2775    0.0499 H       1  LIG1        0.0624
     45 S          14.3903    3.4699   -0.0282 S.3     1  LIG1       -0.1426
     46 H          13.5297    4.4575   -0.0345 H       1  LIG1        0.1071
@<TRIPOS>BOND
     1    23    22    1
     2    34    33    1
     3    22    19    1
     4    20    18    1
     5    33    30    1
     6    31    29    1
     7    46    45    1
     8    42    40    1
     9    45    41    1
    10    18    19   ar
    11    18    15   ar
    12    19    16   ar
    13    29    30   ar
    14    29    26   ar
    15    30    27   ar
    16    40    41   ar
    17    40    37   ar
    18    41    38   ar
    19    12    11    1
    20    11     7    1
    21     7     6   ar
    22     7     4   ar
    23    15     4    1
    24    15    13   ar
    25     6     8    1
    26     6     3   ar
    27     4     2   ar
    28     1     2   ar
    29     1     3   ar
    30     1    10    1
    31     2     5    1
    32     3     9    1
    33    16    26    1
    34    16    14   ar
    35    26    24   ar
    36    27    37    1
    37    27    25   ar
    38    37    35   ar
    39    38    43    1
    40    38    36   ar
    41    13    14   ar
    42    13    21    1
    43    14    17    1
    44    24    25   ar
    45    24    32    1
    46    25    28    1
    47    35    36   ar
    48    35    44    1
    49    36    39    1
