@<TRIPOS>MOLECULE
mol_data/noopt/geoms/mol2/4ah12ha6ih-12ah.out
 46 49 0 0 0
SMALL
GASTEIGER

@<TRIPOS>ATOM
      1 C           0.0509    0.0309    0.0002 C.ar    1  LIG1       -0.0610
      2 C           1.4592    0.0309    0.0002 C.ar    1  LIG1       -0.0492
      3 C          -0.6045    1.2792    0.0002 C.ar    1  LIG1       -0.0600
      4 C           2.1849    1.2200   -0.0004 C.ar    1  LIG1        0.0397
      5 H           1.9850   -0.9213    0.0004 H       1  LIG1        0.0625
      6 C           0.1195    2.4666   -0.0004 C.ar    1  LIG1       -0.0404
      7 C           1.5181    2.4458   -0.0008 C.ar    1  LIG1        0.0354
      8 H          -0.4090    3.4165   -0.0003 H       1  LIG1        0.0636
      9 H          -1.9035    1.3287    0.0016 H       1  LIG1        0.0618
     10 H          -0.5708   -1.1108    0.0005 H       1  LIG1        0.0618
     11 N           2.1896    3.5590   -0.0012 N.pl3   1  LIG1       -0.3574
     12 H           3.0608    3.4225   -0.4727 H       1  LIG1        0.1423
     13 H           1.6626    4.2660   -0.4727 H       1  LIG1        0.1423
     14 C           3.4844    1.1831   -0.0005 C.ar    1  LIG1        0.1579
     15 C           4.4399    0.1881   -0.0006 C.ar    1  LIG1        0.0716
     16 C           5.7279    0.8499   -0.0007 C.ar    1  LIG1        0.0056
     17 C           5.4738    2.2061   -0.0008 C.ar    1  LIG1        0.1393
     18 O           4.0977    2.4367   -0.0007 O.2     1  LIG1       -0.4528
     19 N           4.2495   -1.0979   -0.0005 N.pl3   1  LIG1       -0.3550
     20 H           3.3930   -1.3081   -0.4718 H       1  LIG1        0.1424
     21 H           5.0083   -1.5472   -0.4719 H       1  LIG1        0.1424
     22 H           6.8846    0.2566   -0.0008 H       1  LIG1        0.0674
     23 C           5.5902    4.5522   -0.0218 C.ar    1  LIG1        0.0498
     24 C           6.1999    3.2844   -0.0008 C.ar    1  LIG1        0.0401
     25 C           7.5941    3.2154    0.0202 C.ar    1  LIG1       -0.0265
     26 C           8.3258    4.4041    0.0192 C.ar    1  LIG1        0.0546
     27 C           7.6251    5.6240   -0.0029 C.ar    1  LIG1        0.1268
     28 N           6.2806    5.7090   -0.0231 N.ar    1  LIG1       -0.2462
     29 H           8.1059    2.2427    0.0360 H       1  LIG1        0.0644
     30 C           4.2952    4.6679   -0.0417 C.3     1  LIG1       -0.0216
     31 H           3.8545    3.8302    0.4572 H       1  LIG1        0.0293
     32 H           3.9553    4.6982   -1.0559 H       1  LIG1        0.0293
     33 H           4.0101    5.5706    0.4571 H       1  LIG1        0.0293
     34 N           9.6257    4.3932    0.0381 N.pl3   1  LIG1       -0.3562
     35 H           9.9589    3.5739   -0.4284 H       1  LIG1        0.1424
     36 H           9.9726    5.2068   -0.4285 H       1  LIG1        0.1424
     37 C           8.2619    6.7573   -0.0045 C.ar    1  LIG1        0.1565
     38 C           9.5870    7.1408    0.0090 C.ar    1  LIG1        0.0065
     39 C           9.5999    8.5888   -0.0033 C.ar    1  LIG1        0.0635
     40 C           8.2813    8.9942   -0.0237 C.ar    1  LIG1        0.1132
     41 O           7.4374    7.8831   -0.0249 O.2     1  LIG1       -0.4595
     42 H           7.6642   10.1383   -0.0414 H       1  LIG1        0.1049
     43 H          10.6369    6.3745    0.0290 H       1  LIG1        0.0674
     44 N          10.6630    9.3370    0.0037 N.pl3   1  LIG1       -0.3555
     45 H          11.4076    8.8627   -0.4659 H       1  LIG1        0.1424
     46 H          10.4677   10.1980   -0.4659 H       1  LIG1        0.1424
@<TRIPOS>BOND
     1    32    30    1
     2    13    11    1
     3    12    11    1
     4    21    19    1
     5    20    19    1
     6    46    44    1
     7    45    44    1
     8    36    34    1
     9    35    34    1
    10    30    23    1
    11    30    33    1
    12    30    31    1
    13    42    40    1
    14    41    40   ar
    15    41    37   ar
    16    40    39   ar
    17    28    23   ar
    18    28    27   ar
    19    23    24   ar
    20    37    27    1
    21    37    38   ar
    22    39    44    1
    23    39    38   ar
    24    27    26   ar
    25    11     7    1
    26    24    17    1
    27    24    25   ar
    28     7     4   ar
    29     7     6   ar
    30    22    16    1
    31    17    18   ar
    32    17    16   ar
    33    18    14   ar
    34    16    15   ar
    35    15    14   ar
    36    15    19    1
    37    14     4    1
    38     4     2   ar
    39     6     8    1
    40     6     3   ar
    41     2     1   ar
    42     2     5    1
    43     3     1   ar
    44     3     9    1
    45     1    10    1
    46    38    43    1
    47    26    25   ar
    48    26    34    1
    49    25    29    1
