@<TRIPOS>MOLECULE
mol_data/noopt/geoms/mol2/4ah12ai(270)13ei(270)13ff(200).out
 47 50 0 0 0
SMALL
GASTEIGER

@<TRIPOS>ATOM
      1 C           0.0509    0.0309    0.0002 C.ar    1  LIG1       -0.0610
      2 C           1.4592    0.0309    0.0002 C.ar    1  LIG1       -0.0493
      3 C          -0.6045    1.2792    0.0002 C.ar    1  LIG1       -0.0600
      4 C           2.1849    1.2200   -0.0004 C.ar    1  LIG1        0.0379
      5 H           1.9850   -0.9213    0.0004 H       1  LIG1        0.0625
      6 C           0.1195    2.4666   -0.0004 C.ar    1  LIG1       -0.0404
      7 C           1.5181    2.4458   -0.0008 C.ar    1  LIG1        0.0353
      8 H          -0.4090    3.4165   -0.0003 H       1  LIG1        0.0636
      9 H          -1.9035    1.3287    0.0016 H       1  LIG1        0.0618
     10 H          -0.5708   -1.1108    0.0005 H       1  LIG1        0.0618
     11 N           2.1896    3.5590   -0.0012 N.pl3   1  LIG1       -0.3574
     12 H           3.0608    3.4225   -0.4727 H       1  LIG1        0.1423
     13 H           1.6626    4.2660   -0.4727 H       1  LIG1        0.1423
     14 C           3.4844    1.1831   -0.0005 C.ar    1  LIG1        0.1378
     15 C           4.4673    1.1552   -0.9680 C.ar    1  LIG1       -0.0122
     16 C           5.7355    1.1192   -0.2700 C.ar    1  LIG1       -0.0026
     17 C           5.4433    1.1276    1.0784 C.ar    1  LIG1        0.1558
     18 O           4.0618    1.1669    1.2699 O.2     1  LIG1       -0.4530
     19 H           4.3134    1.1595   -2.2589 H       1  LIG1        0.0658
     20 C           6.9083    1.0859   -0.8305 C.3     1  LIG1       -0.0360
     21 H           7.4722    1.9439   -0.5291 H       1  LIG1        0.0279
     22 H           6.7954    1.0892   -1.8946 H       1  LIG1        0.0279
     23 H           7.4225    0.1972   -0.5292 H       1  LIG1        0.0279
     24 C           6.1382    1.1078    2.1769 C.ar    1  LIG1        0.0987
     25 C           7.4835    1.0702    2.3689 C.ar    1  LIG1        0.0565
     26 C           7.7137    1.0622    3.7823 C.ar    1  LIG1       -0.0076
     27 C           6.4990    1.0972    4.3918 C.ar    1  LIG1        0.0713
     28 N           5.5317    1.1247    3.4126 N.ar    1  LIG1       -0.3493
     29 H           4.5511    1.1529    3.5725 H       1  LIG1        0.1661
     30 C           8.3908    1.0445    1.4382 C.1     1  LIG1       -0.0672
     31 C           9.2292    1.0208    0.5783 C.1     1  LIG1       -0.1138
     32 H           9.9760    0.9997   -0.1877 H       1  LIG1        0.1232
     33 C           8.8696    1.0284    4.3767 C.3     1  LIG1       -0.0365
     34 H           8.9818    1.8991    4.9884 H       1  LIG1        0.0279
     35 H           9.6478    1.0057    3.6426 H       1  LIG1        0.0279
     36 H           8.9306    0.1525    4.9883 H       1  LIG1        0.0279
     37 C           6.1886    1.1053    5.6541 C.ar    1  LIG1        0.1089
     38 C           5.6340    0.1383    6.4322 C.ar    1  LIG1        0.1856
     39 C           5.5050    0.6745    7.7538 C.ar    1  LIG1        0.1767
     40 C           5.9881    1.9449    7.7256 C.ar    1  LIG1        0.0480
     41 N           6.4072    2.2128    6.4419 N.ar    1  LIG1       -0.3535
     42 H           6.8052    3.0698    6.1331 H       1  LIG1        0.1656
     43 H           6.0846    2.8319    8.6711 H       1  LIG1        0.0845
     44 O           5.2848   -1.0522    6.0440 O.3     1  LIG1       -0.5019
     45 H           6.0671   -1.6004    5.9484 H       1  LIG1        0.2924
     46 O           5.0170    0.0623    8.7917 O.3     1  LIG1       -0.5023
     47 H           5.6044   -0.6526    9.0475 H       1  LIG1        0.2923
@<TRIPOS>BOND
     1    19    15    1
     2    22    20    1
     3    15    16   ar
     4    15    14   ar
     5    20    23    1
     6    20    21    1
     7    20    16    1
     8    13    11    1
     9    12    11    1
    10    16    17   ar
    11    32    31    1
    12    11     7    1
    13     7     6   ar
    14     7     4   ar
    15    14     4    1
    16    14    18   ar
    17     6     8    1
    18     6     3   ar
    19     4     2   ar
    20     1     3   ar
    21     1     2   ar
    22     1    10    1
    23     3     9    1
    24     2     5    1
    25    31    30    3
    26    17    18   ar
    27    17    24    1
    28    30    25    1
    29    24    25   ar
    30    24    28   ar
    31    25    26   ar
    32    28    29    1
    33    28    27   ar
    34    35    33    1
    35    26    33    1
    36    26    27   ar
    37    33    36    1
    38    33    34    1
    39    27    37    1
    40    37    38   ar
    41    37    41   ar
    42    45    44    1
    43    44    38    1
    44    42    41    1
    45    38    39   ar
    46    41    40   ar
    47    40    39   ar
    48    40    43    1
    49    39    46    1
    50    46    47    1
