@<TRIPOS>MOLECULE
mol_data/noopt/geoms/mol2/4ah12ee4ii-13hd-.out
 52 55 0 0 0
SMALL
GASTEIGER

@<TRIPOS>ATOM
      1 C           0.0509    0.0309    0.0002 C.ar    1  LIG1       -0.0610
      2 C           1.4592    0.0309    0.0002 C.ar    1  LIG1       -0.0493
      3 C          -0.6045    1.2792    0.0002 C.ar    1  LIG1       -0.0600
      4 C           2.1849    1.2200   -0.0004 C.ar    1  LIG1        0.0391
      5 H           1.9850   -0.9213    0.0004 H       1  LIG1        0.0625
      6 C           0.1195    2.4666   -0.0004 C.ar    1  LIG1       -0.0404
      7 C           1.5181    2.4458   -0.0008 C.ar    1  LIG1        0.0354
      8 H          -0.4090    3.4165   -0.0003 H       1  LIG1        0.0636
      9 H          -1.9035    1.3287    0.0016 H       1  LIG1        0.0618
     10 H          -0.5708   -1.1108    0.0005 H       1  LIG1        0.0618
     11 N           2.1896    3.5590   -0.0012 N.pl3   1  LIG1       -0.3574
     12 H           3.0608    3.4225   -0.4727 H       1  LIG1        0.1423
     13 H           1.6626    4.2660   -0.4727 H       1  LIG1        0.1423
     14 C           3.4844    1.1831   -0.0005 C.ar    1  LIG1        0.1540
     15 C           4.4399    0.1881   -0.0006 C.ar    1  LIG1        0.0864
     16 C           5.7279    0.8499   -0.0007 C.ar    1  LIG1        0.0864
     17 C           5.4738    2.2061   -0.0008 C.ar    1  LIG1        0.1525
     18 O           4.0977    2.4367   -0.0007 O.2     1  LIG1       -0.4522
     19 C           4.2495   -1.0979   -0.0005 C.1     1  LIG1       -0.0646
     20 C           4.0736   -2.2861   -0.0004 C.1     1  LIG1       -0.1138
     21 H           3.9169   -3.3446   -0.0003 H       1  LIG1        0.1232
     22 C           6.8846    0.2566   -0.0008 C.1     1  LIG1       -0.0646
     23 C           7.9534   -0.2917   -0.0008 C.1     1  LIG1       -0.1138
     24 H           8.9054   -0.7801   -0.0009 H       1  LIG1        0.1232
     25 C           7.6060    3.1845    0.0213 C.ar    1  LIG1       -0.0391
     26 C           8.3475    4.3818    0.0218 C.ar    1  LIG1       -0.0487
     27 C           6.1998    3.2844   -0.0008 C.ar    1  LIG1        0.0217
     28 C           7.7187    5.6247    0.0007 C.ar    1  LIG1        0.0033
     29 H           9.4337    4.3276    0.0388 H       1  LIG1        0.0627
     30 C           5.5717    4.5250   -0.0219 C.ar    1  LIG1       -0.0472
     31 C           6.3257    5.7031   -0.0214 C.ar    1  LIG1       -0.0406
     32 H           4.4859    4.5757   -0.0386 H       1  LIG1        0.0627
     33 C           8.2493    2.0546    0.0413 C.3     1  LIG1       -0.0390
     34 H           9.1811    2.1837    0.5511 H       1  LIG1        0.0278
     35 H           8.4335    1.7312   -0.9619 H       1  LIG1        0.0278
     36 H           7.6627    1.3192    0.5511 H       1  LIG1        0.0278
     37 C           5.7328    6.8602   -0.0410 C.3     1  LIG1       -0.0391
     38 H           4.7892    6.7860    0.4580 H       1  LIG1        0.0278
     39 H           5.5771    7.1641   -1.0551 H       1  LIG1        0.0278
     40 H           6.3443    7.5827    0.4579 H       1  LIG1        0.0278
     41 C           8.4343    6.7101    0.0017 C.ar    1  LIG1        0.0690
     42 C           9.7834    6.8771    0.0020 C.ar    1  LIG1        0.0678
     43 C          10.0399    8.2859    0.0044 C.ar    1  LIG1        0.0902
     44 C           8.8363    8.9179    0.0036 C.ar    1  LIG1        0.0215
     45 N           7.8506    7.9569    0.0024 N.ar    1  LIG1       -0.3580
     46 H           6.8727    8.1350    0.0016 H       1  LIG1        0.1654
     47 H           8.5493   10.1858    0.0049 H       1  LIG1        0.0820
     48 N          10.6736    5.9297    0.0019 N.pl3   1  LIG1       -0.3553
     49 H          10.3068    5.1277   -0.4696 H       1  LIG1        0.1424
     50 H          11.4968    6.2459   -0.4696 H       1  LIG1        0.1424
     51 N          12.2363    9.3638    0.0082 N.1     1  LIG1       -0.1908
     52 C          11.2070    8.8586    0.0064 C.1     1  LIG1        0.1025
@<TRIPOS>BOND
     1    39    37    1
     2    35    33    1
     3    13    11    1
     4    12    11    1
     5    50    48    1
     6    49    48    1
     7    37    31    1
     8    37    40    1
     9    37    38    1
    10    32    30    1
    11    30    31   ar
    12    30    27   ar
    13    31    28   ar
    14    11     7    1
    15    24    23    1
    16    23    22    3
    17    27    17    1
    18    27    25   ar
    19     7     6   ar
    20     7     4   ar
    21    22    16    1
    22    17    18   ar
    23    17    16   ar
    24    18    14   ar
    25    16    15   ar
    26    15    14   ar
    27    15    19    1
    28    14     4    1
    29    19    20    3
    30     6     8    1
    31     6     3   ar
    32     4     2   ar
    33    20    21    1
    34     1     2   ar
    35     1     3   ar
    36     1    10    1
    37     2     5    1
    38     3     9    1
    39    28    41    1
    40    28    26   ar
    41    46    45    1
    42    41    42   ar
    43    41    45   ar
    44    48    42    1
    45    42    43   ar
    46    45    44   ar
    47    44    43   ar
    48    44    47    1
    49    43    52    1
    50    52    51    3
    51    25    26   ar
    52    25    33    1
    53    26    29    1
    54    33    36    1
    55    33    34    1
