@<TRIPOS>MOLECULE
mol_data/noopt/geoms/mol2/4ah13ee(270)6fl(70)12di(20).out
 51 54 0 0 0
SMALL
GASTEIGER

@<TRIPOS>ATOM
      1 C           0.0509    0.0309    0.0002 C.ar    1  LIG1       -0.0610
      2 C           1.4592    0.0309    0.0002 C.ar    1  LIG1       -0.0508
      3 C          -0.6045    1.2792    0.0002 C.ar    1  LIG1       -0.0600
      4 C           2.1849    1.2200   -0.0004 C.ar    1  LIG1        0.0202
      5 H           1.9850   -0.9213    0.0004 H       1  LIG1        0.0625
      6 C           0.1195    2.4666   -0.0004 C.ar    1  LIG1       -0.0404
      7 C           1.5181    2.4458   -0.0008 C.ar    1  LIG1        0.0338
      8 H          -0.4090    3.4165   -0.0003 H       1  LIG1        0.0636
      9 H          -1.9035    1.3287    0.0016 H       1  LIG1        0.0618
     10 H          -0.5708   -1.1108    0.0005 H       1  LIG1        0.0618
     11 N           2.1896    3.5590   -0.0012 N.pl3   1  LIG1       -0.3575
     12 H           3.0608    3.4225   -0.4727 H       1  LIG1        0.1423
     13 H           1.6626    4.2660   -0.4727 H       1  LIG1        0.1423
     14 C           3.4844    1.1831   -0.0005 C.ar    1  LIG1        0.0655
     15 C           4.3659    1.1586   -1.0350 C.ar    1  LIG1        0.0659
     16 C           5.6828    1.1198   -0.4739 C.ar    1  LIG1        0.0660
     17 C           5.5482    1.1241    0.8788 C.ar    1  LIG1        0.0689
     18 N           4.2039    1.1623    1.1730 N.ar    1  LIG1       -0.3520
     19 H           3.8146    1.1738    2.0875 H       1  LIG1        0.1660
     20 C           4.0650    1.1673   -2.2997 C.1     1  LIG1       -0.0663
     21 C           3.7869    1.1753   -3.4682 C.1     1  LIG1       -0.1138
     22 H           3.5392    1.1824   -4.5091 H       1  LIG1        0.1232
     23 C           6.8028    1.0870   -1.1331 C.1     1  LIG1       -0.0663
     24 C           7.8377    1.0566   -1.7423 C.1     1  LIG1       -0.1138
     25 H           8.7595    1.0296   -2.2848 H       1  LIG1        0.1232
     26 C           7.7752    1.4750    1.5388 C.ar    1  LIG1        0.2226
     27 C           6.4485    1.0978    1.8162 C.ar    1  LIG1        0.0644
     28 C           6.1267    0.6980    3.1145 C.ar    1  LIG1       -0.0035
     29 C           7.1317    0.6883    4.0833 C.ar    1  LIG1        0.1499
     30 C           8.4292    1.0828    3.7087 C.ar    1  LIG1        0.1525
     31 N           8.7572    1.4715    2.4610 N.ar    1  LIG1       -0.2056
     32 H           5.1009    0.3954    3.3687 H       1  LIG1        0.0663
     33 O           8.1235    1.8547    0.3452 O.3     1  LIG1       -0.4919
     34 H           7.5424    2.5600    0.0511 H       1  LIG1        0.2937
     35 O           6.8829    0.3241    5.3062 O.3     1  LIG1       -0.4928
     36 C           5.6785    0.9508    5.7551 C.3     1  LIG1        0.0789
     37 H           5.4740    0.6507    6.7616 H       1  LIG1        0.0660
     38 H           5.7937    2.0140    5.7164 H       1  LIG1        0.0660
     39 H           4.8665    0.6569    5.1234 H       1  LIG1        0.0660
     40 C           9.3985    1.0906    4.5749 C.ar    1  LIG1        0.1741
     41 C           9.9433    0.1732    5.4493 C.ar    1  LIG1        0.1019
     42 C          11.0253    0.8470    6.1366 C.ar    1  LIG1        0.0054
     43 C          11.0699    2.1320    5.6362 C.ar    1  LIG1        0.0968
     44 O          10.0768    2.3064    4.6719 O.2     1  LIG1       -0.4597
     45 H          11.8022    3.1845    5.8506 H       1  LIG1        0.1032
     46 N           9.2542   -2.1470    5.8069 N.1     1  LIG1       -0.1907
     47 C           9.5772   -1.0596    5.6393 C.1     1  LIG1        0.1033
     48 C          11.7910    0.3192    7.0454 C.3     1  LIG1       -0.0355
     49 H          12.2066    1.0938    7.6554 H       1  LIG1        0.0279
     50 H          12.5816   -0.2257    6.5731 H       1  LIG1        0.0279
     51 H          11.2149   -0.3449    7.6554 H       1  LIG1        0.0279
@<TRIPOS>BOND
     1    22    21    1
     2    21    20    3
     3    20    15    1
     4    25    24    1
     5    24    23    3
     6    23    16    1
     7    15    16   ar
     8    15    14   ar
     9    16    17   ar
    10    13    11    1
    11    12    11    1
    12    11     7    1
    13     7     6   ar
    14     7     4   ar
    15    14     4    1
    16    14    18   ar
    17     6     8    1
    18     6     3   ar
    19     4     2   ar
    20     1     3   ar
    21     1     2   ar
    22     1    10    1
    23     3     9    1
    24     2     5    1
    25    34    33    1
    26    33    26    1
    27    17    18   ar
    28    17    27    1
    29    18    19    1
    30    26    27   ar
    31    26    31   ar
    32    27    28   ar
    33    31    30   ar
    34    28    32    1
    35    28    29   ar
    36    30    29   ar
    37    30    40    1
    38    29    35    1
    39    40    44   ar
    40    40    41   ar
    41    44    43   ar
    42    39    36    1
    43    35    36    1
    44    41    47    1
    45    41    42   ar
    46    43    45    1
    47    43    42   ar
    48    47    46    3
    49    38    36    1
    50    36    37    1
    51    42    48    1
    52    50    48    1
    53    48    51    1
    54    48    49    1
