@<TRIPOS>MOLECULE
mol_data/noopt/geoms/mol2/4ah13ll(310)6fd(240)13di(120).out
 53 56 0 0 0
SMALL
GASTEIGER

@<TRIPOS>ATOM
      1 C           0.0509    0.0309    0.0002 C.ar    1  LIG1       -0.0610
      2 C           1.4592    0.0309    0.0002 C.ar    1  LIG1       -0.0507
      3 C          -0.6045    1.2792    0.0002 C.ar    1  LIG1       -0.0600
      4 C           2.1849    1.2200   -0.0004 C.ar    1  LIG1        0.0226
      5 H           1.9850   -0.9213    0.0004 H       1  LIG1        0.0625
      6 C           0.1195    2.4666   -0.0004 C.ar    1  LIG1       -0.0404
      7 C           1.5181    2.4458   -0.0008 C.ar    1  LIG1        0.0339
      8 H          -0.4090    3.4165   -0.0003 H       1  LIG1        0.0636
      9 H          -1.9035    1.3287    0.0016 H       1  LIG1        0.0618
     10 H          -0.5708   -1.1108    0.0005 H       1  LIG1        0.0618
     11 N           2.1896    3.5590   -0.0012 N.pl3   1  LIG1       -0.3575
     12 H           3.0608    3.4225   -0.4727 H       1  LIG1        0.1423
     13 H           1.6626    4.2660   -0.4727 H       1  LIG1        0.1423
     14 C           3.4844    1.1831   -0.0005 C.ar    1  LIG1        0.0947
     15 C           4.3461    0.4616   -0.7652 C.ar    1  LIG1        0.1875
     16 C           5.6738    0.8012   -0.3497 C.ar    1  LIG1        0.1877
     17 C           5.5650    1.7167    0.6494 C.ar    1  LIG1        0.0981
     18 N           4.2263    1.9530    0.8667 N.ar    1  LIG1       -0.3481
     19 H           3.8544    2.5804    1.5420 H       1  LIG1        0.1661
     20 O           4.0210   -0.3818   -1.6996 O.3     1  LIG1       -0.4895
     21 C           2.6439   -0.2065   -2.0427 C.3     1  LIG1        0.0791
     22 H           2.3768   -0.9007   -2.8119 H       1  LIG1        0.0660
     23 H           2.0363   -0.3798   -1.1791 H       1  LIG1        0.0660
     24 H           2.4881    0.7922   -2.3937 H       1  LIG1        0.0660
     25 O           6.7812    0.3246   -0.8361 O.3     1  LIG1       -0.4895
     26 C           6.6549   -1.0886   -1.0147 C.3     1  LIG1        0.0791
     27 H           7.5665   -1.4804   -1.4152 H       1  LIG1        0.0660
     28 H           6.4522   -1.5507   -0.0711 H       1  LIG1        0.0660
     29 H           5.8515   -1.2921   -1.6914 H       1  LIG1        0.0660
     30 C           6.8523    1.8377    2.6107 C.ar    1  LIG1        0.2224
     31 C           6.4832    2.3221    1.3424 C.ar    1  LIG1        0.0646
     32 C           7.1242    3.4610    0.8513 C.ar    1  LIG1       -0.0279
     33 C           8.1032    4.0723    1.6364 C.ar    1  LIG1        0.0800
     34 C           8.4028    3.5130    2.8922 C.ar    1  LIG1        0.1095
     35 N           7.7944    2.4149    3.3814 N.ar    1  LIG1       -0.2096
     36 H           6.8618    3.8692   -0.1350 H       1  LIG1        0.0639
     37 O           6.2841    0.7806    3.1106 O.3     1  LIG1       -0.4919
     38 H           6.9412    0.0917    3.2338 H       1  LIG1        0.2937
     39 N           9.2804    6.0718    0.8605 N.1     1  LIG1       -0.1908
     40 C           8.7287    5.1347    1.2241 C.1     1  LIG1        0.1014
     41 C           9.3067    4.0461    3.6596 C.ar    1  LIG1        0.0842
     42 C           9.1951    4.6181    4.8877 C.ar    1  LIG1        0.0814
     43 C          10.5042    5.0452    5.2811 C.ar    1  LIG1       -0.0151
     44 C          11.3584    4.7137    4.2768 C.ar    1  LIG1        0.0064
     45 N          10.6293    4.1022    3.2819 N.ar    1  LIG1       -0.3581
     46 H          10.9993    3.7557    2.4269 H       1  LIG1        0.1654
     47 H          12.6413    4.8925    4.1672 H       1  LIG1        0.0810
     48 N           7.1336    4.8709    6.1808 N.1     1  LIG1       -0.1908
     49 C           8.0998    4.7525    5.5748 C.1     1  LIG1        0.1016
     50 C          10.8213    5.6400    6.3930 C.3     1  LIG1       -0.0371
     51 H           9.9345    5.8336    6.9595 H       1  LIG1        0.0278
     52 H          11.3141    6.5645    6.1750 H       1  LIG1        0.0278
     53 H          11.4764    5.0116    6.9594 H       1  LIG1        0.0278
@<TRIPOS>BOND
     1    22    21    1
     2    24    21    1
     3    21    20    1
     4    21    23    1
     5    20    15    1
     6    29    26    1
     7    27    26    1
     8    26    25    1
     9    26    28    1
    10    25    16    1
    11    15    16   ar
    12    15    14   ar
    13    13    11    1
    14    12    11    1
    15    16    17   ar
    16    36    32    1
    17    11     7    1
    18     7     6   ar
    19     7     4   ar
    20    14     4    1
    21    14    18   ar
    22     6     8    1
    23     6     3   ar
    24     4     2   ar
    25     1     3   ar
    26     1     2   ar
    27     1    10    1
    28     3     9    1
    29     2     5    1
    30    17    18   ar
    31    17    31    1
    32    32    31   ar
    33    32    33   ar
    34    39    40    3
    35    18    19    1
    36    40    33    1
    37    31    30   ar
    38    33    34   ar
    39    46    45    1
    40    30    37    1
    41    30    35   ar
    42    34    35   ar
    43    34    41    1
    44    37    38    1
    45    45    41   ar
    46    45    44   ar
    47    41    42   ar
    48    47    44    1
    49    44    43   ar
    50    42    43   ar
    51    42    49    1
    52    43    50    1
    53    49    48    3
    54    52    50    1
    55    50    53    1
    56    50    51    1
