@<TRIPOS>MOLECULE
mol_data/noopt/geoms/mol2/4ai13ah13eh-13id.out
 49 52 0 0 0
SMALL
GASTEIGER

@<TRIPOS>ATOM
      1 C           0.0509    0.0309    0.0002 C.ar    1  LIG1       -0.0611
      2 C           1.4592    0.0309    0.0002 C.ar    1  LIG1       -0.0524
      3 C          -0.6045    1.2792    0.0002 C.ar    1  LIG1       -0.0615
      4 C           2.1849    1.2200   -0.0004 C.ar    1  LIG1        0.0013
      5 H           1.9850   -0.9213    0.0004 H       1  LIG1        0.0624
      6 C           0.1195    2.4666   -0.0004 C.ar    1  LIG1       -0.0582
      7 C           1.5181    2.4458   -0.0008 C.ar    1  LIG1       -0.0413
      8 H          -0.4090    3.4165   -0.0003 H       1  LIG1        0.0620
      9 H          -1.9035    1.3287    0.0016 H       1  LIG1        0.0618
     10 H          -0.5708   -1.1108    0.0005 H       1  LIG1        0.0618
     11 C           2.1897    3.5592   -0.0012 C.3     1  LIG1       -0.0391
     12 H           1.6260    4.3160    0.5031 H       1  LIG1        0.0278
     13 H           2.3738    3.8644   -1.0102 H       1  LIG1        0.0278
     14 H           3.1221    3.4135    0.5030 H       1  LIG1        0.0278
     15 C           3.4844    1.1831   -0.0005 C.ar    1  LIG1        0.0490
     16 C           4.3366    0.1240   -0.0009 C.ar    1  LIG1       -0.0150
     17 C           5.6695    0.6476    0.0003 C.ar    1  LIG1        0.0523
     18 C           5.5731    2.0036   -0.0004 C.ar    1  LIG1        0.0855
     19 N           4.2371    2.3357   -0.0004 N.ar    1  LIG1       -0.3515
     20 H           3.8737    3.2609   -0.0009 H       1  LIG1        0.1660
     21 H           3.9999   -1.1316   -0.0008 H       1  LIG1        0.0657
     22 N           6.7708   -0.0431    0.0013 N.pl3   1  LIG1       -0.3563
     23 H           6.6197   -0.9121   -0.4698 H       1  LIG1        0.1424
     24 H           7.4873    0.4713   -0.4699 H       1  LIG1        0.1424
     25 C           6.5000    2.9152    0.0001 C.ar    1  LIG1        0.0826
     26 C           7.8542    2.7960    0.0001 C.ar    1  LIG1        0.0727
     27 C           8.4000    4.1199    0.0019 C.ar    1  LIG1        0.0679
     28 C           7.3553    4.9899    0.0012 C.ar    1  LIG1        0.0858
     29 N           6.1903    4.2565    0.0006 N.ar    1  LIG1       -0.3494
     30 H           5.2713    4.6354   -0.0001 H       1  LIG1        0.1661
     31 C           8.5263    1.6833    0.0000 C.1     1  LIG1       -0.0656
     32 C           9.1474    0.6551    0.0000 C.1     1  LIG1       -0.1138
     33 H           9.7007   -0.2608    0.0000 H       1  LIG1        0.1232
     34 N           9.6611    4.4357    0.0034 N.pl3   1  LIG1       -0.3553
     35 H          10.1832    3.7247   -0.4676 H       1  LIG1        0.1424
     36 H           9.7867    5.3088   -0.4676 H       1  LIG1        0.1424
     37 C           7.3401    6.2898    0.0020 C.ar    1  LIG1        0.0689
     38 C           8.3642    7.1838    0.0023 C.ar    1  LIG1       -0.0064
     39 C           7.7876    8.4946    0.0045 C.ar    1  LIG1        0.0725
     40 C           6.4366    8.3439    0.0037 C.ar    1  LIG1        0.0199
     41 N           6.1583    6.9957    0.0027 N.ar    1  LIG1       -0.3581
     42 H           5.2484    6.5955    0.0019 H       1  LIG1        0.1654
     43 H           5.4886    9.2335    0.0049 H       1  LIG1        0.0820
     44 C           9.6326    6.8975    0.0022 C.3     1  LIG1       -0.0364
     45 H          10.1729    7.6712    0.5066 H       1  LIG1        0.0279
     46 H           9.9805    6.8191   -1.0067 H       1  LIG1        0.0279
     47 H           9.7882    5.9668    0.5065 H       1  LIG1        0.0279
     48 N           9.0034   10.6177    0.0080 N.1     1  LIG1       -0.1908
     49 C           8.4336    9.6227    0.0064 C.1     1  LIG1        0.1009
@<TRIPOS>BOND
     1    13    11    1
     2    46    44    1
     3    24    22    1
     4    23    22    1
     5    36    34    1
     6    35    34    1
     7    11     7    1
     8    11    14    1
     9    11    12    1
    10    16    21    1
    11    16    15   ar
    12    16    17   ar
    13    20    19    1
    14     7     6   ar
    15     7     4   ar
    16    15     4    1
    17    15    19   ar
    18     6     8    1
    19     6     3   ar
    20     4     2   ar
    21    19    18   ar
    22    18    25    1
    23    18    17   ar
    24    30    29    1
    25    33    32    1
    26    32    31    3
    27    31    26    1
    28    26    25   ar
    29    26    27   ar
    30    25    29   ar
    31     1     2   ar
    32     1     3   ar
    33     1    10    1
    34     2     5    1
    35     3     9    1
    36    17    22    1
    37    29    28   ar
    38    28    27   ar
    39    28    37    1
    40    27    34    1
    41    42    41    1
    42    37    38   ar
    43    37    41   ar
    44    44    38    1
    45    44    47    1
    46    44    45    1
    47    38    39   ar
    48    41    40   ar
    49    40    39   ar
    50    40    43    1
    51    39    49    1
    52    49    48    3
