@<TRIPOS>MOLECULE
mol_data/noopt/geoms/mol2/4ai12ll6hi-6al-.out
 57 59 0 0 0
SMALL
GASTEIGER

@<TRIPOS>ATOM
      1 C           0.0509    0.0309    0.0002 C.ar    1  LIG1       -0.0533
      2 C           1.4592    0.0309    0.0002 C.ar    1  LIG1       -0.0062
      3 C          -0.6045    1.2792    0.0002 C.ar    1  LIG1       -0.0609
      4 C           2.1849    1.2200   -0.0004 C.ar    1  LIG1        0.0319
      5 H           1.9850   -0.9213    0.0004 H       1  LIG1        0.0194
      6 C           0.1195    2.4666   -0.0004 C.ar    1  LIG1       -0.0581
      7 C           1.5181    2.4458   -0.0008 C.ar    1  LIG1       -0.0391
      8 H          -0.4090    3.4165   -0.0003 H       1  LIG1        0.0620
      9 H          -1.9035    1.3287    0.0016 H       1  LIG1        0.0618
     10 H          -0.5708   -1.1108    0.0005 H       1  LIG1        0.0624
     11 C           2.1897    3.5592   -0.0012 C.3     1  LIG1       -0.0390
     12 H           1.6260    4.3160    0.5031 H       1  LIG1        0.0278
     13 H           2.3738    3.8644   -1.0102 H       1  LIG1        0.0278
     14 H           3.1221    3.4135    0.5030 H       1  LIG1        0.0278
     15 C           3.4844    1.1831   -0.0005 C.ar    1  LIG1        0.1868
     16 C           4.4399    0.1881   -0.0006 C.ar    1  LIG1        0.2663
     17 C           5.7279    0.8499   -0.0007 C.ar    1  LIG1        0.2137
     18 C           5.4738    2.2061   -0.0008 C.ar    1  LIG1        0.1844
     19 O           4.0977    2.4367   -0.0007 O.2     1  LIG1       -0.4469
     20 O           4.2495   -1.0979   -0.0005 O.3     1  LIG1       -0.2799
     21 C           2.8461   -1.3726   -0.0005 C.3     2  LIG2       -0.0776
     22 H           2.6899   -2.4312   -0.0006 H       1  LIG1        0.0194
     23 H           2.3992   -0.9462    0.8732 H       1  LIG1        0.0194
     24 H           2.3992   -0.9461   -0.8741 H       1  LIG1        0.0194
     25 O           6.8846    0.2566   -0.0008 O.3     1  LIG1       -0.4883
     26 C           6.6940   -1.1607   -0.0009 C.3     1  LIG1        0.0791
     27 H           7.6463   -1.6487   -0.0011 H       1  LIG1        0.0660
     28 H           6.1467   -1.4471    0.8729 H       1  LIG1        0.0660
     29 H           6.1464   -1.4469   -0.8744 H       1  LIG1        0.0660
     30 C           5.5902    4.5522   -0.0218 C.ar    1  LIG1        0.1277
     31 C           6.1999    3.2844   -0.0008 C.ar    1  LIG1        0.0608
     32 C           7.5941    3.2154    0.0202 C.ar    1  LIG1       -0.0427
     33 C           8.3258    4.4041    0.0192 C.ar    1  LIG1       -0.0236
     34 C           7.6251    5.6240   -0.0029 C.ar    1  LIG1        0.0776
     35 N           6.2806    5.7090   -0.0231 N.ar    1  LIG1       -0.2314
     36 H           8.1059    2.2427    0.0360 H       1  LIG1        0.0629
     37 N           4.2955    4.6679   -0.0417 N.pl3   1  LIG1       -0.3426
     38 H           4.0434    5.5102   -0.5182 H       1  LIG1        0.1437
     39 H           3.8980    3.8837   -0.5182 H       1  LIG1        0.1437
     40 C           9.6260    4.3932    0.0381 C.3     1  LIG1       -0.0377
     41 H           9.9826    5.2639    0.5476 H       1  LIG1        0.0278
     42 H           9.9972    4.3902   -0.9655 H       1  LIG1        0.0278
     43 H           9.9679    3.5166    0.5476 H       1  LIG1        0.0278
     44 C           7.5521    7.9719   -0.0265 C.ar    1  LIG1        0.0370
     45 C           8.2619    6.7573   -0.0045 C.ar    1  LIG1        0.0222
     46 C           9.6572    6.8008    0.0155 C.ar    1  LIG1       -0.0078
     47 C          10.2908    8.0447    0.0129 C.ar    1  LIG1        0.1387
     48 C           9.4941    9.2041   -0.0100 C.ar    1  LIG1        0.0692
     49 N           8.1471    9.1805   -0.0294 N.ar    1  LIG1       -0.2590
     50 H          10.2457    5.8726    0.0320 H       1  LIG1        0.0662
     51 H          10.0376   10.3850   -0.0133 H       1  LIG1        0.0867
     52 H           6.2523    7.9829   -0.0455 H       1  LIG1        0.0836
     53 O          11.5874    8.1385    0.0308 O.3     1  LIG1       -0.4936
     54 C          12.1606    6.8284    0.0373 C.3     1  LIG1        0.0789
     55 H          13.2277    6.9061    0.0519 H       1  LIG1        0.0660
     56 H          11.8297    6.2986    0.9061 H       1  LIG1        0.0660
     57 H          11.8535    6.3003   -0.8411 H       1  LIG1        0.0660
@<TRIPOS>BOND
     1    13    11    1
     2    42    40    1
     3    29    26    1
     4    24    21    1
     5    57    54    1
     6    39    37    1
     7    38    37    1
     8    52    44    1
     9    37    30    1
    10    49    44   ar
    11    49    48   ar
    12    44    45   ar
    13    35    30   ar
    14    35    34   ar
    15    30    31   ar
    16    51    48    1
    17    48    47   ar
    18    45    34    1
    19    45    46   ar
    20    34    33   ar
    21    11     7    1
    22    11    14    1
    23    11    12    1
    24    27    26    1
    25    26    25    1
    26    26    28    1
    27    31    18    1
    28    31    32   ar
    29     7     4   ar
    30     7     6   ar
    31    25    17    1
    32    18    19   ar
    33    18    17   ar
    34    19    15   ar
    35    17    16   ar
    36    16    15   ar
    37    16    20    1
    38    22    21    1
    39    15     4    1
    40    21     5    1
    41    21    23    1
    42     4     2   ar
    43     6     8    1
    44     6     3   ar
    45     2     1   ar
    46     1     3   ar
    47     1    10    1
    48     3     9    1
    49    47    46   ar
    50    47    53    1
    51    46    50    1
    52    33    32   ar
    53    33    40    1
    54    32    36    1
    55    53    54    1
    56    54    55    1
    57    54    56    1
    58    40    43    1
    59    40    41    1
