@<TRIPOS>MOLECULE
mol_data/noopt/geoms/mol2/4ai13ia(350)12al(290)13ea(100).out
 47 50 0 0 0
SMALL
GASTEIGER

@<TRIPOS>ATOM
      1 C           0.0509    0.0309    0.0002 C.ar    1  LIG1       -0.0611
      2 C           1.4592    0.0309    0.0002 C.ar    1  LIG1       -0.0524
      3 C          -0.6045    1.2792    0.0002 C.ar    1  LIG1       -0.0615
      4 C           2.1849    1.2200   -0.0004 C.ar    1  LIG1        0.0015
      5 H           1.9850   -0.9213    0.0004 H       1  LIG1        0.0624
      6 C           0.1195    2.4666   -0.0004 C.ar    1  LIG1       -0.0582
      7 C           1.5181    2.4458   -0.0008 C.ar    1  LIG1       -0.0413
      8 H          -0.4090    3.4165   -0.0003 H       1  LIG1        0.0620
      9 H          -1.9035    1.3287    0.0016 H       1  LIG1        0.0618
     10 H          -0.5708   -1.1108    0.0005 H       1  LIG1        0.0618
     11 C           2.1897    3.5592   -0.0012 C.3     1  LIG1       -0.0391
     12 H           1.6260    4.3160    0.5031 H       1  LIG1        0.0278
     13 H           2.3738    3.8644   -1.0102 H       1  LIG1        0.0278
     14 H           3.1221    3.4135    0.5030 H       1  LIG1        0.0278
     15 C           3.4844    1.1831   -0.0005 C.ar    1  LIG1        0.0502
     16 C           4.3370    0.1374   -0.1666 C.ar    1  LIG1       -0.0245
     17 C           5.6696    0.6536   -0.0755 C.ar    1  LIG1       -0.0299
     18 C           5.5728    1.9922    0.1405 C.ar    1  LIG1        0.0829
     19 N           4.2367    2.3206    0.1875 N.ar    1  LIG1       -0.3515
     20 H           3.8729    3.2340    0.3335 H       1  LIG1        0.1660
     21 C           4.0006   -1.1022   -0.3690 C.3     1  LIG1       -0.0377
     22 H           4.7309   -1.7468    0.0737 H       1  LIG1        0.0278
     23 H           3.9495   -1.2907   -1.4211 H       1  LIG1        0.0278
     24 H           3.0446   -1.2892    0.0736 H       1  LIG1        0.0278
     25 H           6.7712   -0.0288   -0.1800 H       1  LIG1        0.0642
     26 C           6.4993    2.8916    0.2911 C.ar    1  LIG1        0.1555
     27 C           7.5330    3.3776   -0.4824 C.ar    1  LIG1        0.0282
     28 C           8.1971    4.3955    0.3049 C.ar    1  LIG1        0.1678
     29 C           7.5248    4.4640    1.5077 C.ar    1  LIG1        0.1943
     30 O           6.4738    3.5464    1.5232 O.2     1  LIG1       -0.4481
     31 H           7.8675    3.0119   -1.6843 H       1  LIG1        0.0693
     32 O           9.2260    5.0945   -0.0732 O.3     1  LIG1       -0.4912
     33 C          10.3612    4.2362   -0.2120 C.3     1  LIG1        0.0790
     34 H          11.2077    4.8119   -0.5234 H       1  LIG1        0.0660
     35 H          10.5730    3.7700    0.7276 H       1  LIG1        0.0660
     36 H          10.1525    3.4843   -0.9442 H       1  LIG1        0.0660
     37 C           7.6423    5.1655    2.5959 C.ar    1  LIG1        0.1013
     38 C           7.3900    4.8347    3.8901 C.ar    1  LIG1        0.0530
     39 C           7.6882    5.9837    4.6911 C.ar    1  LIG1       -0.0283
     40 C           8.1113    6.9655    3.8514 C.ar    1  LIG1        0.0035
     41 N           8.0843    6.4690    2.5677 N.ar    1  LIG1       -0.3572
     42 H           8.3434    6.9717    1.7502 H       1  LIG1        0.1655
     43 H           8.4934    8.1826    4.1014 H       1  LIG1        0.0807
     44 C           6.9563    3.6862    4.3177 C.1     1  LIG1       -0.0674
     45 C           6.5556    2.6250    4.7129 C.1     1  LIG1       -0.1138
     46 H           6.1987    1.6797    5.0649 H       1  LIG1        0.1232
     47 H           7.5766    6.0747    5.9831 H       1  LIG1        0.0645
@<TRIPOS>BOND
     1    31    27    1
     2    23    21    1
     3    13    11    1
     4    36    33    1
     5    34    33    1
     6    27    26   ar
     7    27    28   ar
     8    21    16    1
     9    21    24    1
    10    21    22    1
    11    33    32    1
    12    33    35    1
    13    25    17    1
    14    16    17   ar
    15    16    15   ar
    16    17    18   ar
    17    32    28    1
    18    11     7    1
    19    11    14    1
    20    11    12    1
    21     7     6   ar
    22     7     4   ar
    23    15     4    1
    24    15    19   ar
    25     6     8    1
    26     6     3   ar
    27     4     2   ar
    28     3     1   ar
    29     3     9    1
    30     2     1   ar
    31     2     5    1
    32     1    10    1
    33    18    19   ar
    34    18    26    1
    35    19    20    1
    36    26    30   ar
    37    28    29   ar
    38    29    30   ar
    39    29    37    1
    40    42    41    1
    41    41    37   ar
    42    41    40   ar
    43    37    38   ar
    44    40    43    1
    45    40    39   ar
    46    38    44    1
    47    38    39   ar
    48    44    45    3
    49    39    47    1
    50    45    46    1
