@<TRIPOS>MOLECULE
mol_data/noopt/geoms/mol2/4ai13eh-4il-12ff.out
 53 53 0 0 0
SMALL
GASTEIGER

@<TRIPOS>ATOM
      1 C           0.0509    0.0309    0.0002 C.ar    1  LIG1       -0.0611
      2 C           1.4592    0.0309    0.0002 C.ar    1  LIG1       -0.0523
      3 C          -0.6045    1.2792    0.0002 C.ar    1  LIG1       -0.0615
      4 C           2.1849    1.2200   -0.0004 C.ar    1  LIG1        0.0025
      5 H           1.9850   -0.9213    0.0004 H       1  LIG1        0.0624
      6 C           0.1195    2.4666   -0.0004 C.ar    1  LIG1       -0.0582
      7 C           1.5181    2.4458   -0.0008 C.ar    1  LIG1       -0.0413
      8 H          -0.4090    3.4165   -0.0003 H       1  LIG1        0.0620
      9 H          -1.9035    1.3287    0.0016 H       1  LIG1        0.0618
     10 H          -0.5708   -1.1108    0.0005 H       1  LIG1        0.0618
     11 C           2.1897    3.5592   -0.0012 C.3     1  LIG1       -0.0391
     12 H           1.6260    4.3160    0.5031 H       1  LIG1        0.0278
     13 H           2.3738    3.8644   -1.0102 H       1  LIG1        0.0278
     14 H           3.1221    3.4135    0.5030 H       1  LIG1        0.0278
     15 C           3.4844    1.1831   -0.0005 C.ar    1  LIG1        0.0646
     16 C           4.3366    0.1241    0.0157 C.ar    1  LIG1        0.0711
     17 C           5.6695    0.6477    0.0079 C.ar    1  LIG1        0.0664
     18 C           5.5731    2.0035   -0.0145 C.ar    1  LIG1        0.0695
     19 N           4.2371    2.3356   -0.0192 N.ar    1  LIG1       -0.3517
     20 H           3.8736    3.2606   -0.0344 H       1  LIG1        0.1660
     21 C           3.9999   -1.1313    0.0361 C.1     1  LIG1       -0.0657
     22 C           3.6887   -2.2914    0.0550 C.1     1  LIG1       -0.1138
     23 H           3.4116   -3.3247    0.0718 H       1  LIG1        0.1232
     24 N           6.7708   -0.0429    0.0195 N.pl3   1  LIG1       -0.3554
     25 H           6.6230   -0.9140   -0.4489 H       1  LIG1        0.1424
     26 H           7.4905    0.4695   -0.4489 H       1  LIG1        0.1424
     27 C           7.8579    2.5361   -0.0148 C.ar    1  LIG1       -0.0405
     28 C           8.8237    3.5610   -0.0300 C.ar    1  LIG1       -0.0467
     29 C           6.4999    2.9149   -0.0291 C.ar    1  LIG1        0.0067
     30 C           8.4559    4.9043   -0.0588 C.ar    1  LIG1        0.0334
     31 H           9.8773    3.2908   -0.0193 H       1  LIG1        0.0628
     32 C           6.1322    4.2558   -0.0577 C.ar    1  LIG1       -0.0049
     33 C           7.1065    5.2594   -0.0729 C.ar    1  LIG1        0.1874
     34 H           5.0785    4.5224   -0.0681 H       1  LIG1        0.0663
     35 C           8.2626    1.3006    0.0116 C.3     1  LIG1       -0.0391
     36 H           9.2006    1.2434    0.5232 H       1  LIG1        0.0278
     37 H           8.3800    0.9422   -0.9897 H       1  LIG1        0.0278
     38 H           7.5401    0.6996    0.5232 H       1  LIG1        0.0278
     39 O           6.7568    6.5112   -0.0995 O.3     1  LIG1       -0.2872
     40 C           7.9267    7.3335   -0.1093 C.3     2  LIG2       -0.0309
     41 H           7.6384    8.3637   -0.1314 H       1  LIG1        0.0309
     42 H           8.5037    7.1434    0.7715 H       0  HOH0        0.2052
     43 H           8.5134    7.1087   -0.9754 H       0  HOH0        0.2052
     44 C           9.3739    5.8247   -0.0723 C.2     1  LIG1        0.0423
     45 C          10.7533    5.8379   -0.0677 C.2     1  LIG1        0.1669
     46 C          11.1549    7.2290   -0.0915 C.2     1  LIG1        0.1590
     47 C           9.9936    7.9738   -0.1092 C.2     1  LIG1       -0.0129
     48 O           8.8821    7.1305   -0.0979 O.3     3  HOH3       -0.4105
     49 H           9.7066    9.2415   -0.1332 H       1  LIG1        0.0656
     50 O          11.5587    4.8176   -0.0462 O.2     1  LIG1       -0.5029
     51 H          12.4675    5.1269   -0.0410 H       1  LIG1        0.2923
     52 O          12.3800    7.6640   -0.0951 O.2     1  LIG1       -0.5033
     53 H          12.3791    8.6240   -0.0960 H       1  LIG1        0.2923
@<TRIPOS>BOND
     1    13    11    1
     2    37    35    1
     3    43    48    1
     4    26    24    1
     5    25    24    1
     6    49    47    1
     7    41    40    1
     8    47    46    2
     9    39    33    1
    10    48    42    1
    11    53    52    1
    12    52    46    1
    13    46    45    1
    14    33    30   ar
    15    33    32   ar
    16    44    45    2
    17    44    30    1
    18    34    32    1
    19    45    50    1
    20    30    28   ar
    21    32    29   ar
    22    50    51    1
    23    20    19    1
    24    28    31    1
    25    28    27   ar
    26    29    27   ar
    27    29    18    1
    28    19    18   ar
    29    19    15   ar
    30    27    35    1
    31    18    17   ar
    32    11     7    1
    33    11    14    1
    34    11    12    1
    35     7     4   ar
    36     7     6   ar
    37    15     4    1
    38    15    16   ar
    39     4     2   ar
    40     6     8    1
    41     6     3   ar
    42     1     2   ar
    43     1     3   ar
    44     1    10    1
    45     2     5    1
    46     3     9    1
    47    17    16   ar
    48    17    24    1
    49    35    38    1
    50    35    36    1
    51    16    21    1
    52    21    22    3
    53    22    23    1
