@<TRIPOS>MOLECULE
mol_data/noopt/geoms/mol2/4ai4if(140)12di(100)12hi(350).out
 52 55 0 0 0
SMALL
GASTEIGER

@<TRIPOS>ATOM
      1 C           0.0509    0.0309    0.0002 C.ar    1  LIG1       -0.0612
      2 C           1.4592    0.0309    0.0002 C.ar    1  LIG1       -0.0538
      3 C          -0.6045    1.2792    0.0002 C.ar    1  LIG1       -0.0615
      4 C           2.1849    1.2200   -0.0004 C.ar    1  LIG1       -0.0146
      5 H           1.9850   -0.9213    0.0004 H       1  LIG1        0.0624
      6 C           0.1195    2.4666   -0.0004 C.ar    1  LIG1       -0.0583
      7 C           1.5181    2.4458   -0.0008 C.ar    1  LIG1       -0.0427
      8 H          -0.4090    3.4165   -0.0003 H       1  LIG1        0.0620
      9 H          -1.9035    1.3287    0.0016 H       1  LIG1        0.0618
     10 H          -0.5708   -1.1108    0.0005 H       1  LIG1        0.0618
     11 C           2.1897    3.5592   -0.0012 C.3     1  LIG1       -0.0391
     12 H           1.6260    4.3160    0.5031 H       1  LIG1        0.0278
     13 H           2.3738    3.8644   -1.0102 H       1  LIG1        0.0278
     14 H           3.1221    3.4135    0.5030 H       1  LIG1        0.0278
     15 C           4.2131    2.0997    0.7846 C.ar    1  LIG1       -0.0418
     16 C           5.6187    2.0197    0.7489 C.ar    1  LIG1       -0.0440
     17 C           3.4843    1.1831   -0.0005 C.ar    1  LIG1       -0.0112
     18 C           6.2718    1.0694   -0.0328 C.ar    1  LIG1        0.0602
     19 H           6.2005    2.7176    1.3470 H       1  LIG1        0.0629
     20 C           4.1358    0.2342   -0.7810 C.ar    1  LIG1       -0.0115
     21 C           5.5330    0.1704   -0.8029 C.ar    1  LIG1        0.1281
     22 H           3.5515   -0.4615   -1.3778 H       1  LIG1        0.0660
     23 C           3.6608    3.0079    1.5336 C.3     1  LIG1       -0.0391
     24 H           2.9139    2.5548    2.1514 H       1  LIG1        0.0278
     25 H           3.2073    3.7534    0.9144 H       1  LIG1        0.0278
     26 H           4.4067    3.4627    2.1513 H       1  LIG1        0.0278
     27 O           6.1366   -0.7187   -1.5346 O.3     1  LIG1       -0.5060
     28 H           7.0340   -0.4295   -1.7149 H       1  LIG1        0.2922
     29 C           7.5710    1.0237   -0.0420 C.ar    1  LIG1        0.1569
     30 C           8.5672    1.1797    0.8994 C.ar    1  LIG1        0.1011
     31 C           9.8254    0.9976    0.2061 C.ar    1  LIG1        0.0165
     32 C           9.5144    0.7422   -1.1136 C.ar    1  LIG1        0.1766
     33 O           8.1305    0.7530   -1.2915 O.2     1  LIG1       -0.4499
     34 N           8.3116    1.6686    3.2831 N.1     1  LIG1       -0.1907
     35 C           8.4314    1.4394    2.1660 C.1     1  LIG1        0.1033
     36 C          11.0057    1.0667    0.7472 C.3     1  LIG1       -0.0348
     37 H          11.0689    1.9455    1.3543 H       1  LIG1        0.0279
     38 H          11.7486    1.1102   -0.0217 H       1  LIG1        0.0279
     39 H          11.1710    0.2012    1.3542 H       1  LIG1        0.0279
     40 C          10.1938    0.5014   -2.1955 C.ar    1  LIG1        0.1907
     41 C          10.2725   -0.5409   -3.0957 C.ar    1  LIG1        0.0770
     42 C          11.2497   -0.1553   -4.0924 C.ar    1  LIG1        0.0087
     43 C          11.7034    1.0977   -3.7350 C.ar    1  LIG1        0.0975
     44 O          11.0671    1.5240   -2.5686 O.2     1  LIG1       -0.4576
     45 H          12.5609    1.9456   -4.2204 H       1  LIG1        0.1033
     46 N           9.6115   -1.6602   -3.0769 N.pl3   1  LIG1       -0.3548
     47 H           8.7355   -1.5377   -3.5435 H       1  LIG1        0.1424
     48 H          10.1415   -2.3682   -3.5435 H       1  LIG1        0.1424
     49 C          11.6108   -0.8709   -5.1163 C.3     1  LIG1       -0.0350
     50 H          12.6687   -1.0282   -5.0862 H       1  LIG1        0.0279
     51 H          11.3520   -0.3580   -6.0190 H       1  LIG1        0.0279
     52 H          11.1088   -1.8153   -5.0862 H       1  LIG1        0.0279
@<TRIPOS>BOND
     1    51    49    1
     2    49    52    1
     3    49    50    1
     4    49    42    1
     5    45    43    1
     6    42    43   ar
     7    42    41   ar
     8    43    44   ar
     9    48    46    1
    10    47    46    1
    11    41    46    1
    12    41    40   ar
    13    44    40   ar
    14    40    32    1
    15    28    27    1
    16    27    21    1
    17    22    20    1
    18    33    32   ar
    19    33    29   ar
    20    32    31   ar
    21    13    11    1
    22    21    20   ar
    23    21    18   ar
    24    20    17   ar
    25    29    18    1
    26    29    30   ar
    27    18    16   ar
    28    38    36    1
    29    11     7    1
    30    11    14    1
    31    11    12    1
    32     7     4   ar
    33     7     6   ar
    34    17     4    1
    35    17    15   ar
    36     4     2   ar
    37     6     8    1
    38     6     3   ar
    39     2     1   ar
    40     2     5    1
    41     3     1   ar
    42     3     9    1
    43     1    10    1
    44    31    36    1
    45    31    30   ar
    46    36    39    1
    47    36    37    1
    48    16    15   ar
    49    16    19    1
    50    15    23    1
    51    30    35    1
    52    25    23    1
    53    23    26    1
    54    23    24    1
    55    35    34    3
