@<TRIPOS>MOLECULE
mol_data/noopt/geoms/mol2/4ai4ai-.out
 28 29 0 0 0
SMALL
GASTEIGER

@<TRIPOS>ATOM
      1 C           0.0509    0.0309    0.0002 C.ar    1  LIG1       -0.0612
      2 C           1.4592    0.0309    0.0002 C.ar    1  LIG1       -0.0538
      3 C          -0.6045    1.2792    0.0002 C.ar    1  LIG1       -0.0615
      4 C           2.1849    1.2200   -0.0004 C.ar    1  LIG1       -0.0150
      5 H           1.9850   -0.9213    0.0004 H       1  LIG1        0.0624
      6 C           0.1195    2.4666   -0.0004 C.ar    1  LIG1       -0.0583
      7 C           1.5181    2.4458   -0.0008 C.ar    1  LIG1       -0.0427
      8 H          -0.4090    3.4165   -0.0003 H       1  LIG1        0.0620
      9 H          -1.9035    1.3287    0.0016 H       1  LIG1        0.0618
     10 H          -0.5708   -1.1108    0.0005 H       1  LIG1        0.0618
     11 C           2.1897    3.5592   -0.0012 C.3     1  LIG1       -0.0391
     12 H           1.6260    4.3160    0.5031 H       1  LIG1        0.0278
     13 H           2.3738    3.8644   -1.0102 H       1  LIG1        0.0278
     14 H           3.1221    3.4135    0.5030 H       1  LIG1        0.0278
     15 C           4.2212    2.3851    0.0002 C.ar    1  LIG1       -0.0540
     16 C           5.6264    2.2916    0.0016 C.ar    1  LIG1       -0.0609
     17 C           3.4843    1.1831   -0.0005 C.ar    1  LIG1       -0.0174
     18 C           6.2715    1.0569    0.0017 C.ar    1  LIG1       -0.0588
     19 H           6.2143    3.2067    0.0024 H       1  LIG1        0.0618
     20 C           4.1278   -0.0498   -0.0004 C.ar    1  LIG1       -0.0511
     21 C           5.5247   -0.1219    0.0006 C.ar    1  LIG1       -0.0499
     22 H           3.5374   -0.9625   -0.0009 H       1  LIG1        0.0626
     23 H           7.5706    1.0074    0.0029 H       1  LIG1        0.0620
     24 H           3.6767    3.5656   -0.0001 H       1  LIG1        0.0624
     25 C           6.1209   -1.2775    0.0008 C.3     1  LIG1       -0.0397
     26 H           7.0608   -1.1938    0.5053 H       1  LIG1        0.0278
     27 H           6.2846   -1.5946   -1.0080 H       1  LIG1        0.0278
     28 H           5.5080   -1.9949    0.5052 H       1  LIG1        0.0278
@<TRIPOS>BOND
     1    13    11    1
     2    27    25    1
     3    11     7    1
     4    11    14    1
     5    11    12    1
     6    22    20    1
     7     7     4   ar
     8     7     6   ar
     9    17    20   ar
    10    17     4    1
    11    17    15   ar
    12    20    21   ar
    13     4     2   ar
    14     6     8    1
    15     6     3   ar
    16    24    15    1
    17    15    16   ar
    18     1     3   ar
    19     1     2   ar
    20     1    10    1
    21     3     9    1
    22     2     5    1
    23    21    25    1
    24    21    18   ar
    25    25    28    1
    26    25    26    1
    27    16    18   ar
    28    16    19    1
    29    18    23    1
