@<TRIPOS>MOLECULE
mol_data/noopt/geoms/mol2/4ai4hd(220)6ai(250)12id(110).out
 51 54 0 0 0
SMALL
GASTEIGER

@<TRIPOS>ATOM
      1 C           0.0509    0.0309    0.0002 C.ar    1  LIG1       -0.0612
      2 C           1.4592    0.0309    0.0002 C.ar    1  LIG1       -0.0537
      3 C          -0.6045    1.2792    0.0002 C.ar    1  LIG1       -0.0615
      4 C           2.1849    1.2200   -0.0004 C.ar    1  LIG1       -0.0132
      5 H           1.9850   -0.9213    0.0004 H       1  LIG1        0.0624
      6 C           0.1195    2.4666   -0.0004 C.ar    1  LIG1       -0.0583
      7 C           1.5181    2.4458   -0.0008 C.ar    1  LIG1       -0.0427
      8 H          -0.4090    3.4165   -0.0003 H       1  LIG1        0.0620
      9 H          -1.9035    1.3287    0.0016 H       1  LIG1        0.0618
     10 H          -0.5708   -1.1108    0.0005 H       1  LIG1        0.0618
     11 C           2.1897    3.5592   -0.0012 C.3     1  LIG1       -0.0391
     12 H           1.6260    4.3160    0.5031 H       1  LIG1        0.0278
     13 H           2.3738    3.8644   -1.0102 H       1  LIG1        0.0278
     14 H           3.1221    3.4135    0.5030 H       1  LIG1        0.0278
     15 C           4.2130    2.0988   -0.7869 C.ar    1  LIG1        0.0330
     16 C           5.6185    2.0168   -0.7537 C.ar    1  LIG1       -0.0315
     17 C           3.4843    1.1831   -0.0005 C.ar    1  LIG1        0.0043
     18 C           6.2718    1.0663    0.0277 C.ar    1  LIG1        0.0027
     19 H           6.2002    2.7136   -1.3530 H       1  LIG1        0.0643
     20 C           4.1360    0.2340    0.7797 C.ar    1  LIG1       -0.0343
     21 C           5.5331    0.1688    0.7996 C.ar    1  LIG1        0.0602
     22 H           3.5518   -0.4611    1.3773 H       1  LIG1        0.0637
     23 N           3.6607    3.0072   -1.5351 N.pl3   1  LIG1       -0.3575
     24 H           4.3577    3.4324   -2.1124 H       1  LIG1        0.1423
     25 H           2.9624    2.5840   -2.1125 H       1  LIG1        0.1423
     26 N           6.6691   -1.5051    2.1757 N.1     1  LIG1       -0.1908
     27 C           6.1367   -0.7206    1.5308 C.1     1  LIG1        0.0998
     28 C           8.2602    0.5778    1.1791 C.ar    1  LIG1        0.0361
     29 C           7.5709    1.0190    0.0347 C.ar    1  LIG1        0.0018
     30 C           8.3127    1.4012   -1.0845 C.ar    1  LIG1       -0.0475
     31 C           9.7055    1.3307   -1.0236 C.ar    1  LIG1       -0.0209
     32 C          10.3035    0.8765    0.1662 C.ar    1  LIG1        0.1092
     33 N           9.6032    0.5036    1.2552 N.ar    1  LIG1       -0.2510
     34 H           7.8091    1.7521   -1.9963 H       1  LIG1        0.0627
     35 H           7.6136    0.2114    2.2456 H       1  LIG1        0.0836
     36 C          10.4411    1.6755   -2.0389 C.3     1  LIG1       -0.0376
     37 H          10.6287    2.7283   -2.0023 H       1  LIG1        0.0278
     38 H           9.9296    1.4358   -2.9477 H       1  LIG1        0.0278
     39 H          11.3702    1.1461   -2.0023 H       1  LIG1        0.0278
     40 C          11.5966    0.7932    0.2715 C.ar    1  LIG1        0.1573
     41 C          12.5263    1.1054    1.2417 C.ar    1  LIG1        0.0142
     42 C          13.8231    0.7535    0.7019 C.ar    1  LIG1        0.0929
     43 C          13.5997    0.2494   -0.5629 C.ar    1  LIG1        0.1102
     44 O          12.2345    0.2635   -0.8510 O.2     1  LIG1       -0.4598
     45 H          14.3460   -0.2211   -1.5177 H       1  LIG1        0.1043
     46 C          12.3087    1.6159    2.4176 C.3     1  LIG1       -0.0348
     47 H          11.6242    0.9938    2.9554 H       1  LIG1        0.0279
     48 H          11.8913    2.5952    2.3096 H       1  LIG1        0.0279
     49 H          13.2316    1.6788    2.9554 H       1  LIG1        0.0279
     50 N          15.9663    1.0210    1.8513 N.1     1  LIG1       -0.1908
     51 C          14.9619    0.8956    1.3126 C.1     1  LIG1        0.1026
@<TRIPOS>BOND
     1    38    36    1
     2    25    23    1
     3    24    23    1
     4    36    39    1
     5    36    37    1
     6    36    31    1
     7    34    30    1
     8    23    15    1
     9    45    43    1
    10    19    16    1
    11    30    31   ar
    12    30    29   ar
    13    31    32   ar
    14    13    11    1
    15    44    43   ar
    16    44    40   ar
    17    15    16   ar
    18    15    17   ar
    19    16    18   ar
    20    43    42   ar
    21    11     7    1
    22    11    14    1
    23    11    12    1
    24     7     4   ar
    25     7     6   ar
    26    17     4    1
    27    17    20   ar
    28     4     2   ar
    29     6     8    1
    30     6     3   ar
    31     1     3   ar
    32     1     2   ar
    33     1    10    1
    34     3     9    1
    35     2     5    1
    36    18    29    1
    37    18    21   ar
    38    29    28   ar
    39    32    40    1
    40    32    33   ar
    41    40    41   ar
    42    42    41   ar
    43    42    51    1
    44    20    21   ar
    45    20    22    1
    46    21    27    1
    47    28    33   ar
    48    28    35    1
    49    41    46    1
    50    51    50    3
    51    27    26    3
    52    48    46    1
    53    46    49    1
    54    46    47    1
