@<TRIPOS>MOLECULE
mol_data/noopt/geoms/mol2/4ai4ai-4ai4ai.out
 54 57 0 0 0
SMALL
GASTEIGER

@<TRIPOS>ATOM
      1 C           0.0509    0.0309    0.0002 C.ar    1  LIG1       -0.0612
      2 C           1.4592    0.0309    0.0002 C.ar    1  LIG1       -0.0538
      3 C          -0.6045    1.2792    0.0002 C.ar    1  LIG1       -0.0615
      4 C           2.1849    1.2200   -0.0004 C.ar    1  LIG1       -0.0150
      5 H           1.9850   -0.9213    0.0004 H       1  LIG1        0.0624
      6 C           0.1195    2.4666   -0.0004 C.ar    1  LIG1       -0.0583
      7 C           1.5181    2.4458   -0.0008 C.ar    1  LIG1       -0.0427
      8 H          -0.4090    3.4165   -0.0003 H       1  LIG1        0.0620
      9 H          -1.9035    1.3287    0.0016 H       1  LIG1        0.0618
     10 H          -0.5708   -1.1108    0.0005 H       1  LIG1        0.0618
     11 C           2.1897    3.5592   -0.0012 C.3     1  LIG1       -0.0391
     12 H           1.6260    4.3160    0.5031 H       1  LIG1        0.0278
     13 H           2.3738    3.8644   -1.0102 H       1  LIG1        0.0278
     14 H           3.1221    3.4135    0.5030 H       1  LIG1        0.0278
     15 C           4.2212    2.3851    0.0002 C.ar    1  LIG1       -0.0534
     16 C           5.6264    2.2916    0.0016 C.ar    1  LIG1       -0.0532
     17 C           3.4843    1.1831   -0.0005 C.ar    1  LIG1       -0.0173
     18 C           6.2715    1.0569    0.0017 C.ar    1  LIG1       -0.0149
     19 H           6.2143    3.2067    0.0024 H       1  LIG1        0.0624
     20 C           4.1278   -0.0498   -0.0004 C.ar    1  LIG1       -0.0505
     21 C           5.5247   -0.1219    0.0006 C.ar    1  LIG1       -0.0422
     22 H           3.5374   -0.9625   -0.0009 H       1  LIG1        0.0626
     23 H           3.6767    3.5656   -0.0001 H       1  LIG1        0.0624
     24 C           6.1209   -1.2775    0.0008 C.3     1  LIG1       -0.0391
     25 H           7.0608   -1.1938    0.5053 H       1  LIG1        0.0278
     26 H           6.2846   -1.5946   -1.0080 H       1  LIG1        0.0278
     27 H           5.5080   -1.9949    0.5052 H       1  LIG1        0.0278
     28 C           8.2259   -0.2409    0.0043 C.ar    1  LIG1       -0.0534
     29 C           9.6342   -0.2409    0.0071 C.ar    1  LIG1       -0.0532
     30 C           7.5705    1.0074    0.0029 C.ar    1  LIG1       -0.0173
     31 C          10.3599    0.9482    0.0079 C.ar    1  LIG1       -0.0149
     32 H          10.1600   -1.1931    0.0084 H       1  LIG1        0.0624
     33 C           8.2945    2.1948    0.0036 C.ar    1  LIG1       -0.0505
     34 C           9.6931    2.1740    0.0060 C.ar    1  LIG1       -0.0422
     35 H           7.7660    3.1447    0.0026 H       1  LIG1        0.0626
     36 H           7.6041   -1.3826    0.0034 H       1  LIG1        0.0624
     37 C          10.3647    3.2874    0.0069 C.3     1  LIG1       -0.0391
     38 H           9.8007    4.0438    0.5116 H       1  LIG1        0.0278
     39 H          10.5493    3.5934   -1.0017 H       1  LIG1        0.0278
     40 H          11.2969    3.1412    0.5115 H       1  LIG1        0.0278
     41 C          12.3268   -0.3306    0.0125 C.ar    1  LIG1       -0.0540
     42 C          13.7350   -0.3169    0.0167 C.ar    1  LIG1       -0.0609
     43 C          11.6593    0.9113    0.0104 C.ar    1  LIG1       -0.0174
     44 C          14.4491    0.8791    0.0181 C.ar    1  LIG1       -0.0588
     45 H          14.2700   -1.2640    0.0186 H       1  LIG1        0.0618
     46 C          12.3718    2.1056    0.0118 C.ar    1  LIG1       -0.0511
     47 C          13.7705    2.0984    0.0156 C.ar    1  LIG1       -0.0499
     48 H          11.8341    3.0504    0.0102 H       1  LIG1        0.0626
     49 H          15.7489    0.8548    0.0219 H       1  LIG1        0.0620
     50 H          11.7161   -1.4783    0.0110 H       1  LIG1        0.0624
     51 C          14.4313    3.2183    0.0171 C.3     1  LIG1       -0.0397
     52 H          13.8598    3.9690    0.5219 H       1  LIG1        0.0278
     53 H          14.6131    3.5265   -0.9914 H       1  LIG1        0.0278
     54 H          15.3647    3.0810    0.5219 H       1  LIG1        0.0278
@<TRIPOS>BOND
     1    13    11    1
     2    26    24    1
     3    39    37    1
     4    53    51    1
     5    11     7    1
     6    11    14    1
     7    11    12    1
     8    22    20    1
     9     7     6   ar
    10     7     4   ar
    11    17    20   ar
    12    17     4    1
    13    17    15   ar
    14    20    21   ar
    15     6     8    1
    16     6     3   ar
    17     4     2   ar
    18    23    15    1
    19    15    16   ar
    20     3     1   ar
    21     3     9    1
    22     1     2   ar
    23     1    10    1
    24     2     5    1
    25    21    24    1
    26    21    18   ar
    27    24    27    1
    28    24    25    1
    29    16    18   ar
    30    16    19    1
    31    18    30    1
    32    35    33    1
    33    30    33   ar
    34    30    28   ar
    35    36    28    1
    36    33    34   ar
    37    28    29   ar
    38    34    37    1
    39    34    31   ar
    40    37    40    1
    41    37    38    1
    42    29    31   ar
    43    29    32    1
    44    31    43    1
    45    48    46    1
    46    43    46   ar
    47    43    41   ar
    48    50    41    1
    49    46    47   ar
    50    41    42   ar
    51    47    51    1
    52    47    44   ar
    53    42    44   ar
    54    42    45    1
    55    51    54    1
    56    51    52    1
    57    44    49    1
