@<TRIPOS>MOLECULE
mol_data/noopt/geoms/mol2/4ai4ai4ai4ai.out
 54 57 0 0 0
SMALL
GASTEIGER

@<TRIPOS>ATOM
      1 C           0.0509    0.0309    0.0002 C.ar    1  LIG1       -0.0612
      2 C           1.4592    0.0309    0.0002 C.ar    1  LIG1       -0.0538
      3 C          -0.6045    1.2792    0.0002 C.ar    1  LIG1       -0.0615
      4 C           2.1849    1.2200   -0.0004 C.ar    1  LIG1       -0.0150
      5 H           1.9850   -0.9213    0.0004 H       1  LIG1        0.0624
      6 C           0.1195    2.4666   -0.0004 C.ar    1  LIG1       -0.0583
      7 C           1.5181    2.4458   -0.0008 C.ar    1  LIG1       -0.0427
      8 H          -0.4090    3.4165   -0.0003 H       1  LIG1        0.0620
      9 H          -1.9035    1.3287    0.0016 H       1  LIG1        0.0618
     10 H          -0.5708   -1.1108    0.0005 H       1  LIG1        0.0618
     11 C           2.1897    3.5592   -0.0012 C.3     1  LIG1       -0.0391
     12 H           1.6260    4.3160    0.5031 H       1  LIG1        0.0278
     13 H           2.3738    3.8644   -1.0102 H       1  LIG1        0.0278
     14 H           3.1221    3.4135    0.5030 H       1  LIG1        0.0278
     15 C           4.1518   -0.0588    0.0002 C.ar    1  LIG1       -0.0534
     16 C           5.5600   -0.0451    0.0016 C.ar    1  LIG1       -0.0532
     17 C           3.4843    1.1831   -0.0005 C.ar    1  LIG1       -0.0173
     18 C           6.2742    1.1510    0.0017 C.ar    1  LIG1       -0.0149
     19 H           6.0950   -0.9922    0.0024 H       1  LIG1        0.0624
     20 C           4.1968    2.3775   -0.0004 C.ar    1  LIG1       -0.0505
     21 C           5.5955    2.3702    0.0006 C.ar    1  LIG1       -0.0422
     22 H           3.6591    3.3222   -0.0009 H       1  LIG1        0.0626
     23 H           3.5412   -1.2064   -0.0001 H       1  LIG1        0.0624
     24 C           6.2563    3.4901    0.0008 C.3     1  LIG1       -0.0391
     25 H           5.6851    4.2412    0.5053 H       1  LIG1        0.0278
     26 H           6.4376    3.7975   -1.0080 H       1  LIG1        0.0278
     27 H           7.1900    3.3532    0.5052 H       1  LIG1        0.0278
     28 C           8.2534   -0.1087    0.0043 C.ar    1  LIG1       -0.0534
     29 C           9.6614   -0.0814    0.0071 C.ar    1  LIG1       -0.0532
     30 C           7.5739    1.1267    0.0029 C.ar    1  LIG1       -0.0173
     31 C          10.3639    1.1216    0.0079 C.ar    1  LIG1       -0.0149
     32 H          10.2056   -1.0232    0.0084 H       1  LIG1        0.0624
     33 C           8.2747    2.3279    0.0036 C.ar    1  LIG1       -0.0505
     34 C           9.6734    2.3342    0.0060 C.ar    1  LIG1       -0.0422
     35 H           7.7279    3.2674    0.0026 H       1  LIG1        0.0626
     36 H           7.6539   -1.2622    0.0034 H       1  LIG1        0.0624
     37 C          10.3234    3.4605    0.0069 C.3     1  LIG1       -0.0391
     38 H           9.7448    4.2058    0.5116 H       1  LIG1        0.0278
     39 H          10.5019    3.7700   -1.0017 H       1  LIG1        0.0278
     40 H          11.2582    3.3324    0.5115 H       1  LIG1        0.0278
     41 C          12.3552   -0.1188    0.0125 C.ar    1  LIG1       -0.0540
     42 C          13.7629   -0.0778    0.0167 C.ar    1  LIG1       -0.0609
     43 C          11.6638    1.1099    0.0104 C.ar    1  LIG1       -0.0174
     44 C          14.4537    1.1319    0.0181 C.ar    1  LIG1       -0.0588
     45 H          14.3162   -1.0143    0.0186 H       1  LIG1        0.0618
     46 C          12.3529    2.3179    0.0118 C.ar    1  LIG1       -0.0511
     47 C          13.7515    2.3378    0.0156 C.ar    1  LIG1       -0.0499
     48 H          11.7970    3.2520    0.0102 H       1  LIG1        0.0626
     49 H          15.7537    1.1328    0.0219 H       1  LIG1        0.0620
     50 H          11.7670   -1.2781    0.0110 H       1  LIG1        0.0624
     51 C          14.3905    3.4703    0.0171 C.3     1  LIG1       -0.0397
     52 H          13.8046    4.2097    0.5219 H       1  LIG1        0.0278
     53 H          14.5663    3.7820   -0.9914 H       1  LIG1        0.0278
     54 H          15.3264    3.3511    0.5219 H       1  LIG1        0.0278
@<TRIPOS>BOND
     1    13    11    1
     2    26    24    1
     3    39    37    1
     4    53    51    1
     5    11     7    1
     6    11    14    1
     7    11    12    1
     8    22    20    1
     9     7     4   ar
    10     7     6   ar
    11    17    20   ar
    12    17     4    1
    13    17    15   ar
    14    20    21   ar
    15     4     2   ar
    16     6     8    1
    17     6     3   ar
    18    23    15    1
    19     2     1   ar
    20     2     5    1
    21     1     3   ar
    22     1    10    1
    23     3     9    1
    24    15    16   ar
    25    21    24    1
    26    21    18   ar
    27    24    27    1
    28    24    25    1
    29    16    18   ar
    30    16    19    1
    31    18    30    1
    32    35    33    1
    33    30    33   ar
    34    30    28   ar
    35    36    28    1
    36    33    34   ar
    37    28    29   ar
    38    34    37    1
    39    34    31   ar
    40    37    40    1
    41    37    38    1
    42    29    31   ar
    43    29    32    1
    44    31    43    1
    45    48    46    1
    46    43    46   ar
    47    43    41   ar
    48    50    41    1
    49    46    47   ar
    50    41    42   ar
    51    47    51    1
    52    47    44   ar
    53    42    44   ar
    54    42    45    1
    55    51    54    1
    56    51    52    1
    57    44    49    1
