@<TRIPOS>MOLECULE
mol_data/noopt/geoms/mol2/4ai6fi-13ei13ie-.out
 54 56 0 0 0
SMALL
GASTEIGER

@<TRIPOS>ATOM
      1 C           0.0509    0.0309    0.0002 C.ar    1  LIG1       -0.0612
      2 C           1.4592    0.0309    0.0002 C.ar    1  LIG1       -0.0537
      3 C          -0.6045    1.2792    0.0002 C.ar    1  LIG1       -0.0615
      4 C           2.1849    1.2200   -0.0004 C.ar    1  LIG1       -0.0126
      5 H           1.9850   -0.9213    0.0004 H       1  LIG1        0.0624
      6 C           0.1195    2.4666   -0.0004 C.ar    1  LIG1       -0.0580
      7 C           1.5181    2.4458   -0.0008 C.ar    1  LIG1       -0.0393
      8 H          -0.4090    3.4165   -0.0003 H       1  LIG1        0.0620
      9 H          -1.9035    1.3287    0.0016 H       1  LIG1        0.0618
     10 H          -0.5708   -1.1108    0.0005 H       1  LIG1        0.0618
     11 C           2.1897    3.5592   -0.0012 C.3     1  LIG1       -0.0231
     12 H           1.6260    4.3160    0.5031 H       1  LIG1        0.0316
     13 H           2.3738    3.8644   -1.0102 H       1  LIG1        0.0316
     14 H           3.1221    3.4135    0.5030 H       0  HOH0        0.2052
     15 C           4.2297    2.3762   -0.0216 C.ar    1  LIG1        0.0982
     16 C           3.4844    1.1831   -0.0005 C.ar    1  LIG1        0.0102
     17 C           4.1715   -0.0320    0.0205 C.ar    1  LIG1       -0.0469
     18 C           5.5674   -0.0147    0.0195 C.ar    1  LIG1       -0.0224
     19 C           6.2235    1.2297   -0.0026 C.ar    1  LIG1        0.0920
     20 N           5.5764    2.4113   -0.0228 N.ar    1  LIG1       -0.2428
     21 H           3.6233   -0.9846    0.0362 H       1  LIG1        0.0628
     22 O           3.6351    3.5321   -0.0414 O.3     2  HOH2       -0.4105
     23 H           2.6838    3.4031   -0.0463 H       0  HOH0        0.2052
     24 C           6.2533   -1.1192    0.0383 C.3     1  LIG1       -0.0376
     25 H           7.1798   -0.9550    0.5478 H       1  LIG1        0.0278
     26 H           6.4492   -1.4345   -0.9653 H       1  LIG1        0.0278
     27 H           5.6954   -1.8769    0.5478 H       1  LIG1        0.0278
     28 C           7.5217    1.2976   -0.0044 C.ar    1  LIG1        0.0815
     29 C           8.4565    0.3106   -0.0059 C.ar    1  LIG1        0.0549
     30 C           9.7428    0.9398   -0.0063 C.ar    1  LIG1       -0.0077
     31 C           9.5376    2.2837   -0.0068 C.ar    1  LIG1        0.0678
     32 N           8.1792    2.5071   -0.0052 N.ar    1  LIG1       -0.3506
     33 H           7.7424    3.4000   -0.0052 H       1  LIG1        0.1660
     34 C           8.2220   -0.9681   -0.0054 C.1     1  LIG1       -0.0672
     35 C           8.0053   -2.1496   -0.0050 C.1     1  LIG1       -0.1138
     36 H           7.8122   -3.2020   -0.0046 H       1  LIG1        0.1232
     37 C          10.8965    0.3400   -0.0067 C.3     1  LIG1       -0.0365
     38 H          11.6161    0.9505    0.4976 H       1  LIG1        0.0279
     39 H          11.2128    0.1756   -1.0157 H       1  LIG1        0.0279
     40 H          10.8100   -0.5998    0.4976 H       1  LIG1        0.0279
     41 C          10.3880    3.2669   -0.0075 C.ar    1  LIG1        0.0673
     42 C          11.7474    3.2572   -0.0083 C.ar    1  LIG1       -0.0084
     43 C          12.1848    4.6208   -0.0076 C.ar    1  LIG1        0.0455
     44 C          11.0735    5.4038   -0.0082 C.ar    1  LIG1        0.0179
     45 N           9.9713    4.5789   -0.0077 N.ar    1  LIG1       -0.3582
     46 H           9.0248    4.8826   -0.0080 H       1  LIG1        0.1654
     47 H          10.9537    6.6982   -0.0081 H       1  LIG1        0.0819
     48 C          12.5072    2.2020   -0.0080 C.3     1  LIG1       -0.0365
     49 H          13.4245    2.4231    0.4965 H       1  LIG1        0.0279
     50 H          12.7158    1.9124   -1.0168 H       1  LIG1        0.0279
     51 H          12.0065    1.4021    0.4964 H       1  LIG1        0.0279
     52 C          13.4164    5.0370   -0.0071 C.1     1  LIG1       -0.0679
     53 C          14.5543    5.4217   -0.0065 C.1     1  LIG1       -0.1139
     54 H          15.5680    5.7643   -0.0061 H       1  LIG1        0.1232
@<TRIPOS>BOND
     1    50    48    1
     2    39    37    1
     3    13    11    1
     4    26    24    1
     5    23    22    1
     6    22    14    1
     7    20    15   ar
     8    20    19   ar
     9    15    16   ar
    10    42    48    1
    11    42    43   ar
    12    42    41   ar
    13    44    47    1
    14    44    45   ar
    15    44    43   ar
    16    48    51    1
    17    48    49    1
    18    46    45    1
    19    45    41   ar
    20    43    52    1
    21    41    31    1
    22    52    53    3
    23    31    30   ar
    24    31    32   ar
    25    37    30    1
    26    37    40    1
    27    37    38    1
    28    53    54    1
    29    30    29   ar
    30    29    34    1
    31    29    28   ar
    32    34    35    3
    33    33    32    1
    34    32    28   ar
    35    35    36    1
    36    28    19    1
    37    19    18   ar
    38    11     7    1
    39    11    12    1
    40     7     4   ar
    41     7     6   ar
    42    16     4    1
    43    16    17   ar
    44     4     2   ar
    45     6     8    1
    46     6     3   ar
    47     1     2   ar
    48     1     3   ar
    49     1    10    1
    50     2     5    1
    51     3     9    1
    52    18    17   ar
    53    18    24    1
    54    17    21    1
    55    24    27    1
    56    24    25    1
