@<TRIPOS>MOLECULE
mol_data/noopt/geoms/mol2/4ai6dh(230)4de(110)13fi(300).out
 52 55 0 0 0
SMALL
GASTEIGER

@<TRIPOS>ATOM
      1 C           0.0509    0.0309    0.0002 C.ar    1  LIG1       -0.0612
      2 C           1.4592    0.0309    0.0002 C.ar    1  LIG1       -0.0537
      3 C          -0.6045    1.2792    0.0002 C.ar    1  LIG1       -0.0615
      4 C           2.1849    1.2200   -0.0004 C.ar    1  LIG1       -0.0122
      5 H           1.9850   -0.9213    0.0004 H       1  LIG1        0.0624
      6 C           0.1195    2.4666   -0.0004 C.ar    1  LIG1       -0.0583
      7 C           1.5181    2.4458   -0.0008 C.ar    1  LIG1       -0.0427
      8 H          -0.4090    3.4165   -0.0003 H       1  LIG1        0.0620
      9 H          -1.9035    1.3287    0.0016 H       1  LIG1        0.0618
     10 H          -0.5708   -1.1108    0.0005 H       1  LIG1        0.0618
     11 C           2.1897    3.5592   -0.0012 C.3     1  LIG1       -0.0391
     12 H           1.6260    4.3160    0.5031 H       1  LIG1        0.0278
     13 H           2.3738    3.8644   -1.0102 H       1  LIG1        0.0278
     14 H           3.1221    3.4135    0.5030 H       1  LIG1        0.0278
     15 C           4.1731    0.3824    0.9289 C.ar    1  LIG1        0.1485
     16 C           3.4844    1.1831   -0.0005 C.ar    1  LIG1        0.0200
     17 C           4.2272    1.9309   -0.9159 C.ar    1  LIG1       -0.0285
     18 C           5.6204    1.8546   -0.8725 C.ar    1  LIG1        0.0516
     19 C           6.2177    1.0253    0.0944 C.ar    1  LIG1        0.0943
     20 N           5.5164    0.2970    0.9849 N.ar    1  LIG1       -0.2339
     21 H           3.7241    2.5688   -1.6563 H       1  LIG1        0.0643
     22 N           2.9544   -0.9619    2.5701 N.1     1  LIG1       -0.1893
     23 C           3.5256   -0.3319    1.8010 C.1     1  LIG1        0.1197
     24 N           6.3567    2.5315   -1.7030 N.pl3   1  LIG1       -0.3563
     25 H           6.8763    1.9002   -2.2786 H       1  LIG1        0.1424
     26 H           5.7712    3.1023   -2.2787 H       1  LIG1        0.1424
     27 C           8.1731    1.2879    1.3638 C.ar    1  LIG1        0.0617
     28 C           9.5749    1.1579    1.3995 C.ar    1  LIG1       -0.0333
     29 C           7.5110    0.9211    0.1743 C.ar    1  LIG1        0.0207
     30 C          10.2880    0.6833    0.3009 C.ar    1  LIG1        0.0185
     31 H          10.1057    1.4355    2.3075 H       1  LIG1        0.0637
     32 C           8.2224    0.4472   -0.9227 C.ar    1  LIG1       -0.0352
     33 C           9.6147    0.3249   -0.8676 C.ar    1  LIG1        0.0346
     34 H           7.6889    0.1709   -1.8287 H       1  LIG1        0.0637
     35 N           7.0251    2.1319    3.3527 N.1     1  LIG1       -0.1908
     36 C           7.5631    1.7363    2.4206 C.1     1  LIG1        0.0998
     37 C          10.2744   -0.1185   -1.8963 C.1     1  LIG1       -0.0690
     38 C          10.8839   -0.5282   -2.8468 C.1     1  LIG1       -0.1139
     39 H          11.4269   -0.8931   -3.6935 H       1  LIG1        0.1232
     40 C          11.5818    0.5759    0.3686 C.ar    1  LIG1        0.0900
     41 C          12.4595   -0.0483   -0.4607 C.ar    1  LIG1        0.1449
     42 C          13.7706    0.1411    0.0833 C.ar    1  LIG1        0.0089
     43 C          13.6365    0.8742    1.2202 C.ar    1  LIG1        0.0087
     44 N          12.2980    1.1422    1.3989 N.ar    1  LIG1       -0.3574
     45 H          11.9104    1.6625    2.1519 H       1  LIG1        0.1655
     46 H          14.5328    1.2993    2.0605 H       1  LIG1        0.0811
     47 O          12.1600   -0.6980   -1.5462 O.3     1  LIG1       -0.5044
     48 H          12.9079   -1.2370   -1.8138 H       1  LIG1        0.2922
     49 C          14.8859   -0.3041   -0.4155 C.3     1  LIG1       -0.0348
     50 H          15.6954    0.3135   -0.0864 H       1  LIG1        0.0279
     51 H          14.8325   -0.2827   -1.4840 H       1  LIG1        0.0279
     52 H          15.0476   -1.3093   -0.0865 H       1  LIG1        0.0279
@<TRIPOS>BOND
     1    39    38    1
     2    38    37    3
     3    26    24    1
     4    25    24    1
     5    37    33    1
     6    34    32    1
     7    48    47    1
     8    24    18    1
     9    21    17    1
    10    47    41    1
    11    51    49    1
    12    13    11    1
    13    32    33   ar
    14    32    29   ar
    15    17    18   ar
    16    17    16   ar
    17    18    19   ar
    18    33    30   ar
    19    41    42   ar
    20    41    40   ar
    21    49    52    1
    22    49    50    1
    23    49    42    1
    24    11     7    1
    25    11    14    1
    26    11    12    1
    27     7     6   ar
    28     7     4   ar
    29    16     4    1
    30    16    15   ar
    31     6     8    1
    32     6     3   ar
    33     4     2   ar
    34     1     2   ar
    35     1     3   ar
    36     1    10    1
    37     2     5    1
    38     3     9    1
    39    42    43   ar
    40    19    29    1
    41    19    20   ar
    42    29    27   ar
    43    30    40    1
    44    30    28   ar
    45    40    44   ar
    46    15    20   ar
    47    15    23    1
    48    43    44   ar
    49    43    46    1
    50    27    28   ar
    51    27    36    1
    52    44    45    1
    53    28    31    1
    54    23    22    3
    55    36    35    3
