@<TRIPOS>MOLECULE
mol_data/noopt/geoms/mol2/4al.out
 16 16 0 0 0
SMALL
GASTEIGER

@<TRIPOS>ATOM
      1 C           0.0509    0.0309    0.0002 C.ar    1  LIG1       -0.0615
      2 C           1.4592    0.0309    0.0002 C.ar    1  LIG1       -0.0583
      3 C          -0.6045    1.2792    0.0002 C.ar    1  LIG1       -0.0583
      4 C           2.1849    1.2200   -0.0004 C.ar    1  LIG1       -0.0200
      5 H           1.9850   -0.9213    0.0004 H       1  LIG1        0.0619
      6 C           0.1195    2.4666   -0.0004 C.ar    1  LIG1       -0.0200
      7 C           1.5181    2.4458   -0.0008 C.ar    1  LIG1        0.1201
      8 H          -0.4090    3.4165   -0.0003 H       1  LIG1        0.0654
      9 H           3.4844    1.1831   -0.0005 H       1  LIG1        0.0654
     10 H          -1.9035    1.3287    0.0016 H       1  LIG1        0.0619
     11 H          -0.5708   -1.1108    0.0005 H       1  LIG1        0.0618
     12 O           2.1896    3.5590   -0.0012 O.3     1  LIG1       -0.4951
     13 C           3.5904    3.2714   -0.0014 C.3     1  LIG1        0.0788
     14 H           4.1427    4.1879   -0.0019 H       1  LIG1        0.0660
     15 H           3.8386    2.7059    0.8724 H       1  LIG1        0.0660
     16 H           3.8381    2.7052   -0.8749 H       1  LIG1        0.0660
@<TRIPOS>BOND
     1    16    13    1
     2    14    13    1
     3    13    12    1
     4    13    15    1
     5    12     7    1
     6     7     4   ar
     7     7     6   ar
     8     9     4    1
     9     4     2   ar
    10     6     8    1
    11     6     3   ar
    12     1     2   ar
    13     1     3   ar
    14     1    11    1
    15     2     5    1
    16     3    10    1
