@<TRIPOS>MOLECULE
mol_data/noopt/geoms/mol2/4al4al4al-4al-.out
 58 55 0 0 0
SMALL
GASTEIGER

@<TRIPOS>ATOM
      1 C           0.0509    0.0309    0.0002 C.ar    1  LIG1       -0.0610
      2 C           1.4592    0.0309    0.0002 C.ar    1  LIG1       -0.0504
      3 C          -0.6045    1.2792    0.0002 C.ar    1  LIG1       -0.0581
      4 C           2.1849    1.2200   -0.0004 C.ar    1  LIG1        0.0291
      5 H           1.9850   -0.9213    0.0004 H       1  LIG1        0.0625
      6 C           0.1195    2.4666   -0.0004 C.ar    1  LIG1       -0.0143
      7 C           1.5181    2.4458   -0.0008 C.ar    1  LIG1        0.1866
      8 H          -0.4090    3.4165   -0.0003 H       1  LIG1        0.0656
      9 H          -1.9035    1.3287    0.0016 H       1  LIG1        0.0619
     10 H          -0.5708   -1.1108    0.0005 H       1  LIG1        0.0618
     11 O           2.1896    3.5590   -0.0012 O.3     1  LIG1       -0.2873
     12 C           3.5904    3.2714   -0.0014 C.3     1  LIG1       -0.0348
     13 H           4.1427    4.1879   -0.0019 H       1  LIG1        0.0306
     14 H           3.8386    2.7059    0.8724 H       1  LIG1        0.0268
     15 H           3.8381    2.7052   -0.8749 H       1  LIG1        0.0268
     16 C           4.1518   -0.0588    0.0002 C.2     1  LIG1       -0.0675
     17 C           5.5600   -0.0451    0.0016 C.3     1  LIG1        0.0130
     18 C           3.4843    1.1831   -0.0005 C.2     1  LIG1       -0.0100
     19 C           6.2742    1.1510    0.0017 C.2     1  LIG1       -0.0129
     20 H           6.0950   -0.9922    0.0024 H       1  LIG1        0.0398
     21 C           4.1968    2.3775   -0.0004 C.3     1  LIG1       -0.0494
     22 C           5.5955    2.3702    0.0006 C.3     1  LIG1        0.2044
     23 H           3.6591    3.3222   -0.0009 H       2  UNK2        0.0000
     24 H           3.5412   -1.2064   -0.0001 H       1  LIG1        0.0584
     25 O           6.2562    3.4899    0.0008 O.3     1  LIG1       -0.2155
     26 C           7.6597    3.2159    0.0008 C.3     2  UNK2       -0.0348
     27 H           8.2031    4.1377    0.0008 H       2  UNK2        0.0306
     28 H           7.9131    2.6525    0.8745 H       2  UNK2        0.0268
     29 H           7.9131    2.6525   -0.8728 H       2  UNK2        0.0268
     30 C           8.2991    2.3358    0.0043 C.3     2  UNK2       -0.0494
     31 C           9.7051    2.2559    0.0071 C.2     1  LIG1       -0.0498
     32 C           7.5739    1.1267    0.0029 C.2     1  LIG1       -0.0114
     33 C          10.3621    1.0275    0.0079 C.2     1  LIG1        0.0239
     34 H          10.2841    3.1767    0.0084 H       1  LIG1        0.0625
     35 C           8.2293   -0.0999    0.0037 C.2     1  LIG1       -0.0116
     36 C           9.6269   -0.1585    0.0061 C.2     1  LIG1        0.1283
     37 H           7.6478   -1.0183    0.0026 H       1  LIG1        0.0660
     38 H           7.7431    3.5109    0.0034 H       3  UNK3        0.0000
     39 O          10.2341   -1.3080    0.0069 O.2     1  LIG1       -0.4945
     40 C           9.2651   -2.3597    0.0072 C.3     1  LIG1        0.0788
     41 H           9.7653   -3.3056    0.0077 H       1  LIG1        0.0660
     42 H           8.6523   -2.2798    0.8807 H       1  LIG1        0.0660
     43 H           8.6527   -2.2806   -0.8666 H       1  LIG1        0.0660
     44 C          12.3984    2.1926    0.0125 C.ar    1  LIG1       -0.0537
     45 C          13.8036    2.0991    0.0167 C.ar    1  LIG1       -0.0577
     46 C          11.6616    0.9906    0.0104 C.ar    1  LIG1       -0.0109
     47 C          14.4487    0.8644    0.0181 C.ar    1  LIG1       -0.0199
     48 H          14.3915    3.0142    0.0186 H       1  LIG1        0.0619
     49 C          12.3051   -0.2423    0.0118 C.ar    1  LIG1       -0.0121
     50 C          13.7020   -0.3144    0.0156 C.ar    1  LIG1        0.1207
     51 H          11.7147   -1.1550    0.0102 H       1  LIG1        0.0660
     52 H          15.7478    0.8149    0.0219 H       1  LIG1        0.0654
     53 H          11.8539    3.3731    0.0110 H       1  LIG1        0.0624
     54 O          14.2980   -1.4698    0.0171 O.3     1  LIG1       -0.4951
     55 C          13.3189   -2.5120    0.0176 C.3     1  LIG1        0.0788
     56 H          13.8099   -3.4627    0.0186 H       1  LIG1        0.0660
     57 H          12.7066   -2.4258    0.8909 H       1  LIG1        0.0660
     58 H          12.7074   -2.4274   -0.8564 H       1  LIG1        0.0660
@<TRIPOS>BOND
     1    15    21    1
     2    29    30    1
     3    43    40    1
     4    58    55    1
     5    13    12    1
     6    12    21    1
     7    11     7    1
     8     7     4   ar
     9     7     6   ar
    10    18     4    1
    11    18    16    2
    12    21    14    1
    13     4     2   ar
    14     6     8    1
    15     6     3   ar
    16    24    16    1
    17     1     2   ar
    18     1     3   ar
    19     1    10    1
    20     2     5    1
    21     3     9    1
    22    16    17    1
    23    22    25    1
    24    22    19    1
    25    26    27    1
    26    26    30    1
    27    17    19    1
    28    17    20    1
    29    19    32    2
    30    37    35    1
    31    32    35    1
    32    35    36    2
    33    30    28    1
    34    36    39    1
    35    36    33    1
    36    39    40    1
    37    31    33    2
    38    31    34    1
    39    40    41    1
    40    40    42    1
    41    33    46    1
    42    51    49    1
    43    46    49   ar
    44    46    44   ar
    45    53    44    1
    46    49    50   ar
    47    44    45   ar
    48    50    54    1
    49    50    47   ar
    50    45    47   ar
    51    45    48    1
    52    54    55    1
    53    55    56    1
    54    55    57    1
    55    47    52    1
