@<TRIPOS>MOLECULE
mol_data/noopt/geoms/mol2/4al4al4al.out
 44 40 0 0 0
SMALL
GASTEIGER

@<TRIPOS>ATOM
      1 C           0.0509    0.0309    0.0002 C.ar    1  LIG1       -0.0610
      2 C           1.4592    0.0309    0.0002 C.ar    1  LIG1       -0.0504
      3 C          -0.6045    1.2792    0.0002 C.ar    1  LIG1       -0.0581
      4 C           2.1849    1.2200   -0.0004 C.ar    1  LIG1        0.0291
      5 H           1.9850   -0.9213    0.0004 H       1  LIG1        0.0625
      6 C           0.1195    2.4666   -0.0004 C.ar    1  LIG1       -0.0143
      7 C           1.5181    2.4458   -0.0008 C.ar    1  LIG1        0.1866
      8 H          -0.4090    3.4165   -0.0003 H       1  LIG1        0.0656
      9 H          -1.9035    1.3287    0.0016 H       1  LIG1        0.0619
     10 H          -0.5708   -1.1108    0.0005 H       1  LIG1        0.0618
     11 O           2.1896    3.5590   -0.0012 O.3     1  LIG1       -0.2873
     12 C           3.5904    3.2714   -0.0014 C.3     1  LIG1       -0.0348
     13 H           4.1427    4.1879   -0.0019 H       1  LIG1        0.0306
     14 H           3.8386    2.7059    0.8724 H       1  LIG1        0.0268
     15 H           3.8381    2.7052   -0.8749 H       1  LIG1        0.0268
     16 C           4.1518   -0.0588    0.0002 C.2     1  LIG1       -0.0675
     17 C           5.5600   -0.0451    0.0016 C.3     1  LIG1        0.0130
     18 C           3.4843    1.1831   -0.0005 C.2     1  LIG1       -0.0100
     19 C           6.2742    1.1510    0.0017 C.2     1  LIG1       -0.0130
     20 H           6.0950   -0.9922    0.0024 H       1  LIG1        0.0398
     21 C           4.1968    2.3775   -0.0004 C.3     1  LIG1       -0.0494
     22 C           5.5955    2.3702    0.0006 C.3     1  LIG1        0.2044
     23 H           3.6591    3.3222   -0.0009 H       2  UNK2        0.0000
     24 H           3.5412   -1.2064   -0.0001 H       1  LIG1        0.0584
     25 O           6.2562    3.4899    0.0008 O.3     1  LIG1       -0.2155
     26 C           7.6597    3.2159    0.0008 C.3     2  UNK2       -0.0348
     27 H           8.2031    4.1377    0.0008 H       2  UNK2        0.0306
     28 H           7.9131    2.6525    0.8745 H       2  UNK2        0.0268
     29 H           7.9131    2.6525   -0.8728 H       2  UNK2        0.0268
     30 C           8.2534   -0.1087    0.0043 C.2     1  LIG1       -0.0538
     31 C           9.6614   -0.0814    0.0071 C.2     1  LIG1       -0.0576
     32 C           7.5739    1.1267    0.0029 C.2     1  LIG1       -0.0150
     33 C          10.3639    1.1216    0.0079 C.2     1  LIG1       -0.0163
     34 H          10.2056   -1.0232    0.0084 H       1  LIG1        0.0619
     35 C           8.2747    2.3279    0.0036 C.3     2  UNK2       -0.0494
     36 C           9.6734    2.3342    0.0060 C.2     1  LIG1        0.1615
     37 H           7.7279    3.2674    0.0026 H       3  UNK3        0.0000
     38 H          11.6639    1.1099    0.0104 H       1  LIG1        0.0655
     39 H           7.6539   -1.2622    0.0034 H       1  LIG1        0.0624
     40 O          10.3232    3.4602    0.0069 O.2     1  LIG1       -0.4915
     41 C          11.7293    3.1999    0.0071 C.3     1  LIG1        0.0790
     42 H          12.2637    4.1269    0.0077 H       1  LIG1        0.0660
     43 H          11.9880    2.6386    0.8807 H       1  LIG1        0.0660
     44 H          11.9884    2.6393   -0.8666 H       1  LIG1        0.0660
@<TRIPOS>BOND
     1    15    21    1
     2    29    35    1
     3    44    41    1
     4    13    12    1
     5    12    21    1
     6    11     7    1
     7     7     6   ar
     8     7     4   ar
     9    18     4    1
    10    18    16    2
    11    21    14    1
    12     6     8    1
    13     6     3   ar
    14     4     2   ar
    15    24    16    1
    16     2     1   ar
    17     2     5    1
    18     3     1   ar
    19     3     9    1
    20     1    10    1
    21    16    17    1
    22    22    25    1
    23    22    19    1
    24    26    27    1
    25    26    35    1
    26    17    19    1
    27    17    20    1
    28    19    32    2
    29    32    30    1
    30    39    30    1
    31    35    28    1
    32    30    31    2
    33    36    40    1
    34    36    33    2
    35    40    41    1
    36    31    33    1
    37    31    34    1
    38    41    42    1
    39    41    43    1
    40    33    38    1
