@<TRIPOS>MOLECULE
mol_data/noopt/geoms/mol2/4al4al-.out
 30 28 0 0 0
SMALL
GASTEIGER

@<TRIPOS>ATOM
      1 C           0.0509    0.0309    0.0002 C.ar    1  LIG1       -0.0610
      2 C           1.4592    0.0309    0.0002 C.ar    1  LIG1       -0.0503
      3 C          -0.6045    1.2792    0.0002 C.ar    1  LIG1       -0.0581
      4 C           2.1849    1.2200   -0.0004 C.ar    1  LIG1        0.0295
      5 H           1.9850   -0.9213    0.0004 H       1  LIG1        0.0625
      6 C           0.1195    2.4666   -0.0004 C.ar    1  LIG1       -0.0143
      7 C           1.5181    2.4458   -0.0008 C.ar    1  LIG1        0.1866
      8 H          -0.4090    3.4165   -0.0003 H       1  LIG1        0.0656
      9 H          -1.9035    1.3287    0.0016 H       1  LIG1        0.0619
     10 H          -0.5708   -1.1108    0.0005 H       1  LIG1        0.0618
     11 O           2.1896    3.5590   -0.0012 O.3     1  LIG1       -0.2873
     12 C           3.5904    3.2714   -0.0014 C.3     1  LIG1       -0.0348
     13 H           4.1427    4.1879   -0.0019 H       1  LIG1        0.0306
     14 H           3.8386    2.7059    0.8724 H       1  LIG1        0.0268
     15 H           3.8381    2.7052   -0.8749 H       1  LIG1        0.0268
     16 C           4.2212    2.3851    0.0002 C.3     1  LIG1       -0.0494
     17 C           5.6264    2.2916    0.0016 C.3     1  LIG1       -0.0053
     18 C           3.4843    1.1831   -0.0005 C.2     1  LIG1       -0.0029
     19 C           6.2715    1.0569    0.0017 C.2     1  LIG1       -0.0380
     20 H           6.2143    3.2067    0.0024 H       1  LIG1        0.0356
     21 C           4.1278   -0.0498   -0.0004 C.2     1  LIG1       -0.0118
     22 C           5.5247   -0.1219    0.0006 C.2     1  LIG1        0.1171
     23 H           3.5374   -0.9625   -0.0009 H       1  LIG1        0.0660
     24 H           7.5706    1.0074    0.0029 H       1  LIG1        0.0611
     25 H           3.6767    3.5656   -0.0001 H       2  UNK2        0.0000
     26 O           6.1208   -1.2773    0.0008 O.2     1  LIG1       -0.4954
     27 C           5.1417   -2.3195    0.0008 C.3     1  LIG1        0.0788
     28 H           5.6327   -3.2702    0.0009 H       1  LIG1        0.0660
     29 H           4.5298   -2.2340    0.8745 H       1  LIG1        0.0660
     30 H           4.5298   -2.2341   -0.8728 H       1  LIG1        0.0660
@<TRIPOS>BOND
     1    15    16    1
     2    30    27    1
     3    13    12    1
     4    12    16    1
     5    11     7    1
     6    23    21    1
     7     7     4   ar
     8     7     6   ar
     9    18    21    2
    10    18     4    1
    11    21    22    1
    12     4     2   ar
    13     6     8    1
    14     6     3   ar
    15    16    14    1
    16     1     3   ar
    17     1     2   ar
    18     1    10    1
    19     3     9    1
    20     2     5    1
    21    22    26    1
    22    22    19    2
    23    26    27    1
    24    27    28    1
    25    27    29    1
    26    17    19    1
    27    17    20    1
    28    19    24    1
