@<TRIPOS>MOLECULE
mol_data/noopt/geoms/mol2/4al4al.out
 30 28 0 0 0
SMALL
GASTEIGER

@<TRIPOS>ATOM
      1 C           0.0509    0.0309    0.0002 C.ar    1  LIG1       -0.0610
      2 C           1.4592    0.0309    0.0002 C.ar    1  LIG1       -0.0504
      3 C          -0.6045    1.2792    0.0002 C.ar    1  LIG1       -0.0581
      4 C           2.1849    1.2200   -0.0004 C.ar    1  LIG1        0.0291
      5 H           1.9850   -0.9213    0.0004 H       1  LIG1        0.0625
      6 C           0.1195    2.4666   -0.0004 C.ar    1  LIG1       -0.0143
      7 C           1.5181    2.4458   -0.0008 C.ar    1  LIG1        0.1866
      8 H          -0.4090    3.4165   -0.0003 H       1  LIG1        0.0656
      9 H          -1.9035    1.3287    0.0016 H       1  LIG1        0.0619
     10 H          -0.5708   -1.1108    0.0005 H       1  LIG1        0.0618
     11 O           2.1896    3.5590   -0.0012 O.3     1  LIG1       -0.2873
     12 C           3.5904    3.2714   -0.0014 C.3     1  LIG1       -0.0348
     13 H           4.1427    4.1879   -0.0019 H       1  LIG1        0.0306
     14 H           3.8386    2.7059    0.8724 H       1  LIG1        0.0268
     15 H           3.8381    2.7052   -0.8749 H       1  LIG1        0.0268
     16 C           4.1518   -0.0588    0.0002 C.2     1  LIG1       -0.0678
     17 C           5.5600   -0.0451    0.0016 C.3     1  LIG1        0.0097
     18 C           3.4843    1.1831   -0.0005 C.2     1  LIG1       -0.0100
     19 C           6.2742    1.1510    0.0017 C.2     1  LIG1       -0.0309
     20 H           6.0950   -0.9922    0.0024 H       1  LIG1        0.0396
     21 C           4.1968    2.3775   -0.0004 C.3     1  LIG1       -0.0494
     22 C           5.5955    2.3702    0.0006 C.2     1  LIG1        0.1579
     23 H           3.6591    3.3222   -0.0009 H       2  UNK2        0.0000
     24 H           7.5740    1.1267    0.0029 H       1  LIG1        0.0616
     25 H           3.5412   -1.2064   -0.0001 H       1  LIG1        0.0584
     26 O           6.2562    3.4899    0.0008 O.2     1  LIG1       -0.4918
     27 C           7.6597    3.2159    0.0008 C.3     1  LIG1        0.0789
     28 H           8.2031    4.1377    0.0008 H       1  LIG1        0.0660
     29 H           7.9131    2.6525    0.8745 H       1  LIG1        0.0660
     30 H           7.9131    2.6525   -0.8728 H       1  LIG1        0.0660
@<TRIPOS>BOND
     1    15    21    1
     2    30    27    1
     3    13    12    1
     4    12    21    1
     5    11     7    1
     6     7     4   ar
     7     7     6   ar
     8    18     4    1
     9    18    16    2
    10    21    14    1
    11     4     2   ar
    12     6     8    1
    13     6     3   ar
    14    25    16    1
    15     1     3   ar
    16     1     2   ar
    17     1    10    1
    18     3     9    1
    19     2     5    1
    20    16    17    1
    21    22    26    1
    22    22    19    2
    23    26    27    1
    24    27    28    1
    25    27    29    1
    26    17    19    1
    27    17    20    1
    28    19    24    1
