@<TRIPOS>MOLECULE
mol_data/noopt/geoms/mol2/4al4al-4al.out
 44 43 0 0 0
SMALL
GASTEIGER

@<TRIPOS>ATOM
      1 C           0.0509    0.0309    0.0002 C.ar    1  LIG1       -0.0610
      2 C           1.4592    0.0309    0.0002 C.ar    1  LIG1       -0.0504
      3 C          -0.6045    1.2792    0.0002 C.ar    1  LIG1       -0.0581
      4 C           2.1849    1.2200   -0.0004 C.ar    1  LIG1        0.0292
      5 H           1.9850   -0.9213    0.0004 H       1  LIG1        0.0625
      6 C           0.1195    2.4666   -0.0004 C.ar    1  LIG1       -0.0143
      7 C           1.5181    2.4458   -0.0008 C.ar    1  LIG1        0.1866
      8 H          -0.4090    3.4165   -0.0003 H       1  LIG1        0.0656
      9 H          -1.9035    1.3287    0.0016 H       1  LIG1        0.0619
     10 H          -0.5708   -1.1108    0.0005 H       1  LIG1        0.0618
     11 O           2.1896    3.5590   -0.0012 O.3     1  LIG1       -0.2873
     12 C           3.5904    3.2714   -0.0014 C.3     1  LIG1       -0.0348
     13 H           4.1427    4.1879   -0.0019 H       1  LIG1        0.0306
     14 H           3.8386    2.7059    0.8724 H       1  LIG1        0.0268
     15 H           3.8381    2.7052   -0.8749 H       1  LIG1        0.0268
     16 C           4.2212    2.3851    0.0002 C.3     1  LIG1       -0.0494
     17 C           5.6264    2.2916    0.0016 C.2     1  LIG1       -0.0545
     18 C           3.4843    1.1831   -0.0005 C.2     1  LIG1       -0.0074
     19 C           6.2715    1.0569    0.0017 C.2     1  LIG1       -0.0013
     20 H           6.2143    3.2067    0.0024 H       1  LIG1        0.0622
     21 C           4.1278   -0.0498   -0.0004 C.2     1  LIG1       -0.0363
     22 C           5.5247   -0.1219    0.0006 C.3     1  LIG1        0.1500
     23 H           3.5374   -0.9625   -0.0009 H       1  LIG1        0.0611
     24 H           3.6767    3.5656   -0.0001 H       2  UNK2        0.0000
     25 O           6.1208   -1.2773    0.0008 O.3     1  LIG1       -0.3643
     26 C           5.1417   -2.3195    0.0008 C.3     1  LIG1        0.0382
     27 H           5.6327   -3.2702    0.0009 H       1  LIG1        0.0524
     28 H           4.5298   -2.2340    0.8745 H       1  LIG1        0.0524
     29 H           4.5298   -2.2341   -0.8728 H       1  LIG1        0.0524
     30 C           8.2259   -0.2409    0.0043 C.ar    1  LIG1       -0.0540
     31 C           9.6342   -0.2409    0.0071 C.ar    1  LIG1       -0.0577
     32 C           7.5705    1.0074    0.0029 C.ar    1  LIG1       -0.0152
     33 C          10.3599    0.9482    0.0079 C.ar    1  LIG1       -0.0199
     34 H          10.1600   -1.1931    0.0084 H       1  LIG1        0.0619
     35 C           8.2945    2.1948    0.0036 C.ar    1  LIG1       -0.0124
     36 C           9.6931    2.1740    0.0060 C.ar    1  LIG1        0.1207
     37 H           7.7660    3.1447    0.0026 H       1  LIG1        0.0660
     38 H          11.6594    0.9113    0.0104 H       1  LIG1        0.0654
     39 H           7.6041   -1.3826    0.0034 H       1  LIG1        0.0624
     40 O          10.3646    3.2872    0.0069 O.3     1  LIG1       -0.4951
     41 C          11.7654    2.9996    0.0071 C.3     1  LIG1        0.0788
     42 H          12.3177    3.9160    0.0077 H       1  LIG1        0.0660
     43 H          12.0131    2.4334    0.8807 H       1  LIG1        0.0660
     44 H          12.0136    2.4341   -0.8666 H       1  LIG1        0.0660
@<TRIPOS>BOND
     1    15    16    1
     2    29    26    1
     3    44    41    1
     4    13    12    1
     5    12    16    1
     6    11     7    1
     7    23    21    1
     8     7     6   ar
     9     7     4   ar
    10    18    21    2
    11    18     4    1
    12    21    22    1
    13     6     8    1
    14     6     3   ar
    15     4     2   ar
    16    16    14    1
    17     2     1   ar
    18     2     5    1
    19     3     1   ar
    20     3     9    1
    21     1    10    1
    22    22    25    1
    23    22    19    1
    24    25    26    1
    25    26    27    1
    26    26    28    1
    27    17    19    2
    28    17    20    1
    29    19    32    1
    30    37    35    1
    31    32    35   ar
    32    32    30   ar
    33    39    30    1
    34    35    36   ar
    35    30    31   ar
    36    36    40    1
    37    36    33   ar
    38    40    41    1
    39    31    33   ar
    40    31    34    1
    41    41    42    1
    42    41    43    1
    43    33    38    1
