@<TRIPOS>MOLECULE
mol_data/noopt/geoms/mol2/4al4al-4al-4al.out
 58 58 0 0 0
SMALL
GASTEIGER

@<TRIPOS>ATOM
      1 C           0.0509    0.0309    0.0002 C.ar    1  LIG1       -0.0610
      2 C           1.4592    0.0309    0.0002 C.ar    1  LIG1       -0.0504
      3 C          -0.6045    1.2792    0.0002 C.ar    1  LIG1       -0.0581
      4 C           2.1849    1.2200   -0.0004 C.ar    1  LIG1        0.0292
      5 H           1.9850   -0.9213    0.0004 H       1  LIG1        0.0625
      6 C           0.1195    2.4666   -0.0004 C.ar    1  LIG1       -0.0143
      7 C           1.5181    2.4458   -0.0008 C.ar    1  LIG1        0.1866
      8 H          -0.4090    3.4165   -0.0003 H       1  LIG1        0.0656
      9 H          -1.9035    1.3287    0.0016 H       1  LIG1        0.0619
     10 H          -0.5708   -1.1108    0.0005 H       1  LIG1        0.0618
     11 O           2.1896    3.5590   -0.0012 O.3     1  LIG1       -0.2873
     12 C           3.5904    3.2714   -0.0014 C.3     1  LIG1       -0.0348
     13 H           4.1427    4.1879   -0.0019 H       1  LIG1        0.0306
     14 H           3.8386    2.7059    0.8724 H       1  LIG1        0.0268
     15 H           3.8381    2.7052   -0.8749 H       1  LIG1        0.0268
     16 C           4.2212    2.3851    0.0002 C.3     1  LIG1       -0.0494
     17 C           5.6264    2.2916    0.0016 C.2     1  LIG1       -0.0545
     18 C           3.4843    1.1831   -0.0005 C.2     1  LIG1       -0.0074
     19 C           6.2715    1.0569    0.0017 C.2     1  LIG1       -0.0013
     20 H           6.2143    3.2067    0.0024 H       1  LIG1        0.0622
     21 C           4.1278   -0.0498   -0.0004 C.2     1  LIG1       -0.0363
     22 C           5.5247   -0.1219    0.0006 C.3     1  LIG1        0.1500
     23 H           3.5374   -0.9625   -0.0009 H       1  LIG1        0.0611
     24 H           3.6767    3.5656   -0.0001 H       2  UNK2        0.0000
     25 O           6.1208   -1.2773    0.0008 O.3     1  LIG1       -0.3643
     26 C           5.1417   -2.3195    0.0008 C.3     1  LIG1        0.0382
     27 H           5.6327   -3.2702    0.0009 H       1  LIG1        0.0524
     28 H           4.5298   -2.2340    0.8745 H       1  LIG1        0.0524
     29 H           4.5298   -2.2341   -0.8728 H       1  LIG1        0.0524
     30 C           8.3190    2.2022    0.0043 C.ar    1  LIG1       -0.0534
     31 C           9.7232    2.0950    0.0071 C.ar    1  LIG1       -0.0500
     32 C           7.5705    1.0074    0.0029 C.ar    1  LIG1       -0.0152
     33 C          10.3563    0.8541    0.0079 C.ar    1  LIG1        0.0239
     34 H          10.3199    3.0044    0.0084 H       1  LIG1        0.0625
     35 C           8.2020   -0.2317    0.0037 C.ar    1  LIG1       -0.0118
     36 C           9.5982   -0.3174    0.0061 C.ar    1  LIG1        0.1283
     37 H           7.6028   -1.1386    0.0026 H       1  LIG1        0.0660
     38 H           7.7859    3.3879    0.0034 H       1  LIG1        0.0624
     39 O          10.1830   -1.4784    0.0069 O.3     1  LIG1       -0.4945
     40 C           9.1938   -2.5111    0.0072 C.3     1  LIG1        0.0788
     41 H           9.6755   -3.4665    0.0077 H       1  LIG1        0.0660
     42 H           8.5826   -2.4194    0.8807 H       1  LIG1        0.0660
     43 H           8.5830   -2.4202   -0.8666 H       1  LIG1        0.0660
     44 C          12.2980   -0.4626    0.0125 C.ar    1  LIG1       -0.0537
     45 C          13.7062   -0.4762    0.0167 C.ar    1  LIG1       -0.0577
     46 C          11.6548    0.7920    0.0104 C.ar    1  LIG1       -0.0109
     47 C          14.4434    0.7058    0.0181 C.ar    1  LIG1       -0.0199
     48 H          14.2228   -1.4335    0.0186 H       1  LIG1        0.0619
     49 C          12.3902    1.9724    0.0118 C.ar    1  LIG1       -0.0121
     50 C          13.7886    1.9380    0.0156 C.ar    1  LIG1        0.1207
     51 H          11.8710    2.9273    0.0102 H       1  LIG1        0.0660
     52 H          15.7425    0.6563    0.0219 H       1  LIG1        0.0654
     53 H          11.6652   -1.5982    0.0110 H       1  LIG1        0.0624
     54 O          14.4708    3.0446    0.0171 O.3     1  LIG1       -0.4951
     55 C          15.8688    2.7435    0.0176 C.3     1  LIG1        0.0788
     56 H          16.4299    3.6545    0.0186 H       1  LIG1        0.0660
     57 H          16.1108    2.1745    0.8909 H       1  LIG1        0.0660
     58 H          16.1117    2.1760   -0.8564 H       1  LIG1        0.0660
@<TRIPOS>BOND
     1    15    16    1
     2    29    26    1
     3    43    40    1
     4    58    55    1
     5    13    12    1
     6    12    16    1
     7    11     7    1
     8    23    21    1
     9     7     4   ar
    10     7     6   ar
    11    18    21    2
    12    18     4    1
    13    21    22    1
    14     4     2   ar
    15     6     8    1
    16     6     3   ar
    17    16    14    1
    18     1     2   ar
    19     1     3   ar
    20     1    10    1
    21     2     5    1
    22     3     9    1
    23    22    25    1
    24    22    19    1
    25    25    26    1
    26    26    27    1
    27    26    28    1
    28    17    19    2
    29    17    20    1
    30    19    32    1
    31    37    35    1
    32    32    35   ar
    33    32    30   ar
    34    38    30    1
    35    35    36   ar
    36    30    31   ar
    37    36    39    1
    38    36    33   ar
    39    39    40    1
    40    31    33   ar
    41    31    34    1
    42    40    41    1
    43    40    42    1
    44    33    46    1
    45    51    49    1
    46    46    49   ar
    47    46    44   ar
    48    53    44    1
    49    49    50   ar
    50    44    45   ar
    51    50    54    1
    52    50    47   ar
    53    45    47   ar
    54    45    48    1
    55    54    55    1
    56    55    56    1
    57    55    57    1
    58    47    52    1
