@<TRIPOS>MOLECULE
mol_data/noopt/geoms/mol2/4da4eh-4ia-4dd-.out
 52 55 0 0 0
SMALL
GASTEIGER

@<TRIPOS>ATOM
      1 C           0.0509    0.0309    0.0002 C.ar    1  LIG1        0.0523
      2 C           1.4592    0.0309    0.0002 C.ar    1  LIG1       -0.0366
      3 C          -0.6045    1.2792    0.0002 C.ar    1  LIG1       -0.0443
      4 C           2.1849    1.2200   -0.0004 C.ar    1  LIG1       -0.0154
      5 H           1.9850   -0.9213    0.0004 H       1  LIG1        0.0636
      6 C           0.1195    2.4666   -0.0004 C.ar    1  LIG1       -0.0600
      7 C           1.5181    2.4458   -0.0008 C.ar    1  LIG1       -0.0539
      8 H          -0.4090    3.4165   -0.0003 H       1  LIG1        0.0618
      9 H          -1.9035    1.3287    0.0016 H       1  LIG1        0.0630
     10 N          -1.1192   -2.1177    0.0008 N.1     1  LIG1       -0.1909
     11 C          -0.5708   -1.1108    0.0005 C.1     1  LIG1        0.0992
     12 H           2.1896    3.5590   -0.0012 H       1  LIG1        0.0624
     13 C           4.1518   -0.0586    0.0215 C.ar    1  LIG1        0.0331
     14 C           5.5600   -0.0449    0.0220 C.ar    1  LIG1       -0.0363
     15 C           3.4843    1.1831   -0.0005 C.ar    1  LIG1       -0.0007
     16 C           6.2742    1.1510    0.0009 C.ar    1  LIG1        0.0042
     17 H           6.0951   -0.9918    0.0390 H       1  LIG1        0.0637
     18 C           4.1968    2.3773   -0.0216 C.ar    1  LIG1       -0.0316
     19 C           5.5955    2.3701   -0.0212 C.ar    1  LIG1        0.0330
     20 H           3.6591    3.3219   -0.0383 H       1  LIG1        0.0643
     21 C           3.5412   -1.2061    0.0416 C.1     1  LIG1       -0.0690
     22 C           2.9769   -2.2663    0.0601 C.1     1  LIG1       -0.1139
     23 H           2.4743   -3.2108    0.0766 H       1  LIG1        0.1232
     24 N           6.2561    3.4895   -0.0408 N.pl3   1  LIG1       -0.3575
     25 H           7.1251    3.3554   -0.5172 H       1  LIG1        0.1423
     26 H           5.7188    4.1854   -0.5172 H       1  LIG1        0.1423
     27 C           8.2534   -0.1084    0.0245 C.ar    1  LIG1       -0.0421
     28 C           9.6614   -0.0811    0.0261 C.ar    1  LIG1       -0.0505
     29 C           7.5739    1.1267    0.0018 C.ar    1  LIG1       -0.0131
     30 C          10.3639    1.1217    0.0055 C.ar    1  LIG1       -0.0163
     31 H          10.2056   -1.0227    0.0436 H       1  LIG1        0.0626
     32 C           8.2747    2.3278   -0.0187 C.ar    1  LIG1       -0.0531
     33 C           9.6734    2.3341   -0.0171 C.ar    1  LIG1       -0.0534
     34 H           7.7279    3.2671   -0.0358 H       1  LIG1        0.0624
     35 C           7.6538   -1.2621    0.0440 C.3     1  LIG1       -0.0391
     36 H           8.2680   -1.9747    0.5538 H       1  LIG1        0.0278
     37 H           7.4823   -1.5920   -0.9593 H       1  LIG1        0.0278
     38 H           6.7176   -1.1688    0.5537 H       1  LIG1        0.0278
     39 H          10.3232    3.4600   -0.0362 H       1  LIG1        0.0624
     40 C          12.3552   -0.1184    0.0308 C.ar    1  LIG1        0.0595
     41 C          13.7629   -0.0774    0.0336 C.ar    1  LIG1       -0.0425
     42 C          11.6638    1.1101    0.0076 C.ar    1  LIG1        0.0007
     43 C          14.4537    1.1322    0.0136 C.ar    1  LIG1       -0.0431
     44 H          14.3162   -1.0137    0.0516 H       1  LIG1        0.0631
     45 C          12.3529    2.3179   -0.0124 C.ar    1  LIG1       -0.0354
     46 C          13.7515    2.3378   -0.0096 C.ar    1  LIG1        0.0524
     47 H          11.7970    3.2518   -0.0300 H       1  LIG1        0.0637
     48 H          15.7537    1.1332    0.0167 H       1  LIG1        0.0631
     49 N          11.2481   -2.2999    0.0667 N.1     1  LIG1       -0.1909
     50 C          11.7670   -1.2775    0.0499 C.1     1  LIG1        0.0998
     51 N          14.9537    4.4684   -0.0446 N.1     1  LIG1       -0.1909
     52 C          14.3903    3.4699   -0.0282 C.1     1  LIG1        0.0992
@<TRIPOS>BOND
     1    37    35    1
     2    26    24    1
     3    25    24    1
     4    51    52    3
     5    24    19    1
     6    20    18    1
     7    39    33    1
     8    34    32    1
     9    47    45    1
    10    52    46    1
    11    18    19   ar
    12    18    15   ar
    13    19    16   ar
    14    32    33   ar
    15    32    29   ar
    16    33    30   ar
    17    45    46   ar
    18    45    42   ar
    19    46    43   ar
    20    12     7    1
    21     7     6   ar
    22     7     4   ar
    23    15     4    1
    24    15    13   ar
    25     6     8    1
    26     6     3   ar
    27     4     2   ar
    28     1     3   ar
    29     1     2   ar
    30     1    11    1
    31     3     9    1
    32     2     5    1
    33    11    10    3
    34    16    29    1
    35    16    14   ar
    36    29    27   ar
    37    30    42    1
    38    30    28   ar
    39    42    40   ar
    40    43    48    1
    41    43    41   ar
    42    13    14   ar
    43    13    21    1
    44    14    17    1
    45    27    28   ar
    46    27    35    1
    47    28    31    1
    48    40    41   ar
    49    40    50    1
    50    41    44    1
    51    21    22    3
    52    35    38    1
    53    35    36    1
    54    50    49    3
    55    22    23    1
