@<TRIPOS>MOLECULE
mol_data/noopt/geoms/mol2/4da4dd4de-4fd-.out
 50 53 0 0 0
SMALL
GASTEIGER

@<TRIPOS>ATOM
      1 C           0.0509    0.0309    0.0002 C.ar    1  LIG1        0.0523
      2 C           1.4592    0.0309    0.0002 C.ar    1  LIG1       -0.0366
      3 C          -0.6045    1.2792    0.0002 C.ar    1  LIG1       -0.0443
      4 C           2.1849    1.2200   -0.0004 C.ar    1  LIG1       -0.0154
      5 H           1.9850   -0.9213    0.0004 H       1  LIG1        0.0636
      6 C           0.1195    2.4666   -0.0004 C.ar    1  LIG1       -0.0600
      7 C           1.5181    2.4458   -0.0008 C.ar    1  LIG1       -0.0539
      8 H          -0.4090    3.4165   -0.0003 H       1  LIG1        0.0618
      9 H          -1.9035    1.3287    0.0016 H       1  LIG1        0.0630
     10 N          -1.1192   -2.1177    0.0008 N.1     1  LIG1       -0.1909
     11 C          -0.5708   -1.1108    0.0005 C.1     1  LIG1        0.0992
     12 H           2.1896    3.5590   -0.0012 H       1  LIG1        0.0624
     13 C           4.1518   -0.0588    0.0002 C.ar    1  LIG1        0.0601
     14 C           5.5600   -0.0451    0.0016 C.ar    1  LIG1       -0.0348
     15 C           3.4843    1.1831   -0.0005 C.ar    1  LIG1        0.0008
     16 C           6.2742    1.1510    0.0017 C.ar    1  LIG1        0.0020
     17 H           6.0950   -0.9922    0.0024 H       1  LIG1        0.0637
     18 C           4.1968    2.3775   -0.0004 C.ar    1  LIG1       -0.0348
     19 C           5.5955    2.3702    0.0006 C.ar    1  LIG1        0.0601
     20 H           3.6591    3.3222   -0.0009 H       1  LIG1        0.0637
     21 N           3.0026   -2.2187   -0.0003 N.1     1  LIG1       -0.1908
     22 C           3.5412   -1.2064   -0.0001 C.1     1  LIG1        0.0998
     23 N           6.8388    4.4774    0.0010 N.1     1  LIG1       -0.1908
     24 C           6.2561    3.4899    0.0008 C.1     1  LIG1        0.0998
     25 C           8.2534   -0.1085    0.0256 C.ar    1  LIG1        0.0601
     26 C           9.6614   -0.0811    0.0275 C.ar    1  LIG1       -0.0348
     27 C           7.5739    1.1267    0.0029 C.ar    1  LIG1        0.0019
     28 C          10.3639    1.1216    0.0070 C.ar    1  LIG1        0.0023
     29 H          10.2055   -1.0228    0.0451 H       1  LIG1        0.0637
     30 C           8.2747    2.3277   -0.0175 C.ar    1  LIG1       -0.0368
     31 C           9.6735    2.3341   -0.0157 C.ar    1  LIG1        0.0331
     32 H           7.7279    3.2670   -0.0348 H       1  LIG1        0.0636
     33 N           7.1251   -2.2791    0.0623 N.1     1  LIG1       -0.1908
     34 C           7.6539   -1.2618    0.0451 C.1     1  LIG1        0.0998
     35 C          10.3232    3.4599   -0.0347 C.1     1  LIG1       -0.0690
     36 C          10.9236    4.5001   -0.0523 C.1     1  LIG1       -0.1139
     37 H          11.4584    5.4267   -0.0679 H       1  LIG1        0.1232
     38 C          12.3552   -0.1185    0.0326 C.ar    1  LIG1        0.1246
     39 C          13.7629   -0.0775    0.0357 C.ar    1  LIG1       -0.0184
     40 C          11.6638    1.1100    0.0093 C.ar    1  LIG1        0.0260
     41 C          14.4537    1.1320    0.0158 C.ar    1  LIG1       -0.0409
     42 H          14.3162   -1.0138    0.0537 H       1  LIG1        0.0655
     43 C          12.3529    2.3178   -0.0105 C.ar    1  LIG1       -0.0331
     44 C          13.7516    2.3377   -0.0075 C.ar    1  LIG1        0.0526
     45 H          11.7970    3.2517   -0.0283 H       1  LIG1        0.0638
     46 H          15.7537    1.1330    0.0192 H       1  LIG1        0.0631
     47 O          11.7669   -1.2777    0.0516 O.3     1  LIG1       -0.5062
     48 H          12.4289   -1.9729    0.0563 H       1  LIG1        0.2922
     49 N          14.9538    4.4682   -0.0423 N.1     1  LIG1       -0.1909
     50 C          14.3904    3.4698   -0.0260 C.1     1  LIG1        0.0992
@<TRIPOS>BOND
     1    37    36    1
     2    36    35    3
     3    49    50    3
     4    32    30    1
     5    35    31    1
     6    45    43    1
     7    50    44    1
     8    30    31   ar
     9    30    27   ar
    10    31    28   ar
    11    43    44   ar
    12    43    40   ar
    13    44    41   ar
    14    12     7    1
    15    20    18    1
    16     7     6   ar
    17     7     4   ar
    18    15    18   ar
    19    15     4    1
    20    15    13   ar
    21    18    19   ar
    22     6     8    1
    23     6     3   ar
    24     4     2   ar
    25    21    22    3
    26    22    13    1
    27     1     2   ar
    28     1     3   ar
    29     1    11    1
    30     2     5    1
    31     3     9    1
    32    13    14   ar
    33    11    10    3
    34    19    24    1
    35    19    16   ar
    36    24    23    3
    37    14    16   ar
    38    14    17    1
    39    16    27    1
    40    27    25   ar
    41    28    40    1
    42    28    26   ar
    43    40    38   ar
    44    41    46    1
    45    41    39   ar
    46    25    26   ar
    47    25    34    1
    48    26    29    1
    49    38    39   ar
    50    38    47    1
    51    39    42    1
    52    34    33    3
    53    47    48    1
