@<TRIPOS>MOLECULE
mol_data/noopt/geoms/mol2/4da4ih-12di-13ad-.out
 48 51 0 0 0
SMALL
GASTEIGER

@<TRIPOS>ATOM
      1 C           0.0509    0.0309    0.0002 C.ar    1  LIG1        0.0523
      2 C           1.4592    0.0309    0.0002 C.ar    1  LIG1       -0.0366
      3 C          -0.6045    1.2792    0.0002 C.ar    1  LIG1       -0.0443
      4 C           2.1849    1.2200   -0.0004 C.ar    1  LIG1       -0.0164
      5 H           1.9850   -0.9213    0.0004 H       1  LIG1        0.0636
      6 C           0.1195    2.4666   -0.0004 C.ar    1  LIG1       -0.0600
      7 C           1.5181    2.4458   -0.0008 C.ar    1  LIG1       -0.0539
      8 H          -0.4090    3.4165   -0.0003 H       1  LIG1        0.0618
      9 H          -1.9035    1.3287    0.0016 H       1  LIG1        0.0630
     10 N          -1.1192   -2.1177    0.0008 N.1     1  LIG1       -0.1909
     11 C          -0.5708   -1.1108    0.0005 C.1     1  LIG1        0.0992
     12 H           2.1896    3.5590   -0.0012 H       1  LIG1        0.0624
     13 C           4.1518   -0.0586    0.0215 C.ar    1  LIG1       -0.0420
     14 C           5.5600   -0.0449    0.0220 C.ar    1  LIG1       -0.0458
     15 C           3.4843    1.1831   -0.0005 C.ar    1  LIG1       -0.0132
     16 C           6.2742    1.1510    0.0009 C.ar    1  LIG1        0.0395
     17 H           6.0951   -0.9918    0.0390 H       1  LIG1        0.0628
     18 C           4.1968    2.3773   -0.0216 C.ar    1  LIG1       -0.0324
     19 C           5.5955    2.3701   -0.0212 C.ar    1  LIG1        0.0360
     20 H           3.6591    3.3219   -0.0383 H       1  LIG1        0.0642
     21 C           3.5410   -1.2063    0.0416 C.3     1  LIG1       -0.0391
     22 H           4.1484   -1.9247    0.5515 H       1  LIG1        0.0278
     23 H           3.3662   -1.5350   -0.9616 H       1  LIG1        0.0278
     24 H           2.6059   -1.1038    0.5514 H       1  LIG1        0.0278
     25 N           6.2561    3.4895   -0.0408 N.pl3   1  LIG1       -0.3574
     26 H           7.1251    3.3554   -0.5172 H       1  LIG1        0.1423
     27 H           5.7188    4.1854   -0.5172 H       1  LIG1        0.1423
     28 C           7.5739    1.1267    0.0018 C.ar    1  LIG1        0.1551
     29 C           8.5391    0.1412    0.0174 C.ar    1  LIG1        0.1010
     30 C           9.8206    0.8154    0.0077 C.ar    1  LIG1        0.0148
     31 C           9.5534    2.1688   -0.0133 C.ar    1  LIG1        0.1559
     32 O           8.1751    2.3860   -0.0173 O.2     1  LIG1       -0.4517
     33 N           8.2043   -2.2821    0.0545 N.1     1  LIG1       -0.1907
     34 C           8.3612   -1.1464    0.0371 C.1     1  LIG1        0.1032
     35 C          10.9832    0.2332    0.0171 C.3     1  LIG1       -0.0348
     36 H          11.6900    0.8564    0.5241 H       1  LIG1        0.0279
     37 H          11.3088    0.0703   -0.9891 H       1  LIG1        0.0279
     38 H          10.9077   -0.7060    0.5241 H       1  LIG1        0.0279
     39 C          10.2689    3.2541   -0.0295 C.ar    1  LIG1        0.0837
     40 C          11.6180    3.4209   -0.0409 C.ar    1  LIG1       -0.0160
     41 C          11.8746    4.8297   -0.0561 C.ar    1  LIG1        0.0697
     42 C          10.6710    5.4617   -0.0551 C.ar    1  LIG1        0.0197
     43 N           9.6853    4.5009   -0.0384 N.ar    1  LIG1       -0.3571
     44 H           8.7074    4.6790   -0.0340 H       1  LIG1        0.1655
     45 H          10.3841    6.7296   -0.0658 H       1  LIG1        0.0820
     46 H          12.5082    2.4735   -0.0371 H       1  LIG1        0.0653
     47 N          14.0709    5.9073   -0.0804 N.1     1  LIG1       -0.1908
     48 C          13.0416    5.4023   -0.0690 C.1     1  LIG1        0.1007
@<TRIPOS>BOND
     1    37    35    1
     2    23    21    1
     3    27    25    1
     4    26    25    1
     5    47    48    3
     6    48    41    1
     7    45    42    1
     8    41    42   ar
     9    41    40   ar
    10    42    43   ar
    11    40    46    1
    12    40    39   ar
    13    25    19    1
    14    43    44    1
    15    43    39   ar
    16    20    18    1
    17    39    31    1
    18    18    19   ar
    19    18    15   ar
    20    19    16   ar
    21    32    31   ar
    22    32    28   ar
    23    31    30   ar
    24    12     7    1
    25     7     4   ar
    26     7     6   ar
    27    15     4    1
    28    15    13   ar
    29     4     2   ar
    30     6     8    1
    31     6     3   ar
    32     3     1   ar
    33     3     9    1
    34     2     1   ar
    35     2     5    1
    36     1    11    1
    37    11    10    3
    38    16    28    1
    39    16    14   ar
    40    28    29   ar
    41    30    35    1
    42    30    29   ar
    43    35    38    1
    44    35    36    1
    45    29    34    1
    46    13    14   ar
    47    13    21    1
    48    14    17    1
    49    34    33    3
    50    21    24    1
    51    21    22    1
