@<TRIPOS>MOLECULE
mol_data/noopt/geoms/mol2/4dd.out
 14 14 0 0 0
SMALL
GASTEIGER

@<TRIPOS>ATOM
      1 C           0.0509    0.0309    0.0002 C.ar    1  LIG1        0.0518
      2 C           1.4592    0.0309    0.0002 C.ar    1  LIG1       -0.0431
      3 C          -0.6045    1.2792    0.0002 C.ar    1  LIG1       -0.0431
      4 C           2.1849    1.2200   -0.0004 C.ar    1  LIG1       -0.0431
      5 H           1.9850   -0.9213    0.0004 H       1  LIG1        0.0631
      6 C           0.1195    2.4666   -0.0004 C.ar    1  LIG1       -0.0431
      7 C           1.5181    2.4458   -0.0008 C.ar    1  LIG1        0.0518
      8 H          -0.4090    3.4165   -0.0003 H       1  LIG1        0.0631
      9 H           3.4844    1.1831   -0.0005 H       1  LIG1        0.0631
     10 H          -1.9035    1.3287    0.0016 H       1  LIG1        0.0631
     11 N          -1.1192   -2.1177    0.0008 N.1     1  LIG1       -0.1909
     12 C          -0.5708   -1.1108    0.0005 C.1     1  LIG1        0.0992
     13 N           2.7818    4.5408   -0.0016 N.1     1  LIG1       -0.1909
     14 C           2.1896    3.5590   -0.0012 C.1     1  LIG1        0.0992
@<TRIPOS>BOND
     1    13    14    3
     2    14     7    1
     3     7     4   ar
     4     7     6   ar
     5     9     4    1
     6     4     2   ar
     7     6     8    1
     8     6     3   ar
     9     1     2   ar
    10     1     3   ar
    11     1    12    1
    12     2     5    1
    13     3    10    1
    14    12    11    3
