@<TRIPOS>MOLECULE
mol_data/noopt/geoms/mol2/4dd13da-6ha12ea.out
 43 46 0 0 0
SMALL
GASTEIGER

@<TRIPOS>ATOM
      1 C           0.0509    0.0309    0.0002 C.ar    1  LIG1        0.0525
      2 C           1.4592    0.0309    0.0002 C.ar    1  LIG1       -0.0340
      3 C          -0.6045    1.2792    0.0002 C.ar    1  LIG1       -0.0431
      4 C           2.1849    1.2200   -0.0004 C.ar    1  LIG1        0.0181
      5 H           1.9850   -0.9213    0.0004 H       1  LIG1        0.0637
      6 C           0.1195    2.4666   -0.0004 C.ar    1  LIG1       -0.0425
      7 C           1.5181    2.4458   -0.0008 C.ar    1  LIG1        0.0610
      8 H          -0.4090    3.4165   -0.0003 H       1  LIG1        0.0631
      9 H          -1.9035    1.3287    0.0016 H       1  LIG1        0.0631
     10 N          -1.1192   -2.1177    0.0008 N.1     1  LIG1       -0.1909
     11 C          -0.5708   -1.1108    0.0005 C.1     1  LIG1        0.0992
     12 N           2.7818    4.5408   -0.0016 N.1     1  LIG1       -0.1908
     13 C           2.1896    3.5590   -0.0012 C.1     1  LIG1        0.0998
     14 C           3.4844    1.1831   -0.0005 C.ar    1  LIG1        0.0658
     15 C           4.3366    0.1241    0.0157 C.ar    1  LIG1        0.0776
     16 C           5.6695    0.6477    0.0079 C.ar    1  LIG1       -0.0183
     17 C           5.5731    2.0035   -0.0145 C.ar    1  LIG1        0.0515
     18 N           4.2371    2.3356   -0.0192 N.ar    1  LIG1       -0.3530
     19 H           3.8736    3.2606   -0.0344 H       1  LIG1        0.1659
     20 N           3.7029   -2.2386    0.0541 N.1     1  LIG1       -0.1908
     21 C           3.9999   -1.1313    0.0361 C.1     1  LIG1        0.1013
     22 H           6.7708   -0.0429    0.0195 H       1  LIG1        0.0652
     23 C           6.1559    4.2791   -0.0369 C.ar    1  LIG1        0.1261
     24 C           6.5000    2.9149   -0.0291 C.ar    1  LIG1        0.0379
     25 C           7.8523    2.5684   -0.0370 C.ar    1  LIG1       -0.0472
     26 C           8.8069    3.5869   -0.0525 C.ar    1  LIG1       -0.0319
     27 C           8.3640    4.9223   -0.0595 C.ar    1  LIG1        0.1093
     28 N           7.0635    5.2744   -0.0518 N.ar    1  LIG1       -0.2286
     29 H           8.1595    1.5130   -0.0323 H       1  LIG1        0.0626
     30 N           4.9103    4.6514   -0.0299 N.pl3   1  LIG1       -0.3426
     31 H           4.8224    5.5299   -0.4995 H       1  LIG1        0.1437
     32 H           4.3547    3.9653   -0.4995 H       1  LIG1        0.1437
     33 H          10.0784    3.3162   -0.0606 H       1  LIG1        0.0640
     34 C           9.2144    5.9054   -0.0738 C.ar    1  LIG1        0.1682
     35 C          10.5895    6.0163   -0.0699 C.ar    1  LIG1        0.0718
     36 C          10.8914    7.4324   -0.0945 C.ar    1  LIG1       -0.0078
     37 C           9.6803    8.0931   -0.1120 C.ar    1  LIG1        0.0939
     38 O           8.6314    7.1731   -0.0998 O.2     1  LIG1       -0.4601
     39 H           9.3042    9.3372   -0.1365 H       1  LIG1        0.1030
     40 C          11.4652    5.0558   -0.0484 C.1     1  LIG1       -0.0658
     41 C          12.2743    4.1682   -0.0285 C.1     1  LIG1       -0.1138
     42 H          12.9951    3.3776   -0.0107 H       1  LIG1        0.1232
     43 H          12.0826    7.9531   -0.0989 H       1  LIG1        0.0661
@<TRIPOS>BOND
     1    32    30    1
     2    31    30    1
     3    39    37    1
     4    37    38   ar
     5    37    36   ar
     6    38    34   ar
     7    43    36    1
     8    36    35   ar
     9    34    35   ar
    10    34    27    1
    11    35    40    1
    12    33    26    1
    13    27    26   ar
    14    27    28   ar
    15    26    25   ar
    16    28    23   ar
    17    40    41    3
    18    25    29    1
    19    25    24   ar
    20    23    30    1
    21    23    24   ar
    22    19    18    1
    23    24    17    1
    24    41    42    1
    25    18    17   ar
    26    18    14   ar
    27    17    16   ar
    28    12    13    3
    29    13     7    1
    30     7     6   ar
    31     7     4   ar
    32    14     4    1
    33    14    15   ar
    34     6     8    1
    35     6     3   ar
    36     4     2   ar
    37     1     3   ar
    38     1     2   ar
    39     1    11    1
    40     3     9    1
    41     2     5    1
    42    11    10    3
    43    16    15   ar
    44    16    22    1
    45    15    21    1
    46    21    20    3
