@<TRIPOS>MOLECULE
mol_data/noopt/geoms/mol2/4dd4dd13fe13ef4di-4ah13da12ef.out
 93 101 0 0 0
SMALL
GASTEIGER

@<TRIPOS>ATOM
      1 C           0.0509    0.0309    0.0002 C.ar    1  LIG1        0.0524
      2 C           1.4592    0.0309    0.0002 C.ar    1  LIG1       -0.0354
      3 C          -0.6045    1.2792    0.0002 C.ar    1  LIG1       -0.0431
      4 C           2.1849    1.2200   -0.0004 C.ar    1  LIG1        0.0020
      5 H           1.9850   -0.9213    0.0004 H       1  LIG1        0.0637
      6 C           0.1195    2.4666   -0.0004 C.ar    1  LIG1       -0.0425
      7 C           1.5181    2.4458   -0.0008 C.ar    1  LIG1        0.0596
      8 H          -0.4090    3.4165   -0.0003 H       1  LIG1        0.0631
      9 H          -1.9035    1.3287    0.0016 H       1  LIG1        0.0631
     10 N          -1.1192   -2.1177    0.0008 N.1     1  LIG1       -0.1909
     11 C          -0.5708   -1.1108    0.0005 C.1     1  LIG1        0.0992
     12 N           2.7818    4.5408   -0.0016 N.1     1  LIG1       -0.1909
     13 C           2.1896    3.5590   -0.0012 C.1     1  LIG1        0.0998
     14 C           4.1518   -0.0588    0.0002 C.ar    1  LIG1        0.0602
     15 C           5.5600   -0.0451    0.0016 C.ar    1  LIG1       -0.0333
     16 C           3.4843    1.1831   -0.0005 C.ar    1  LIG1        0.0020
     17 C           6.2742    1.1510    0.0017 C.ar    1  LIG1        0.0205
     18 H           6.0950   -0.9922    0.0024 H       1  LIG1        0.0637
     19 C           4.1968    2.3775   -0.0004 C.ar    1  LIG1       -0.0347
     20 C           5.5955    2.3702    0.0006 C.ar    1  LIG1        0.0616
     21 H           3.6591    3.3222   -0.0009 H       1  LIG1        0.0637
     22 N           3.0026   -2.2187   -0.0003 N.1     1  LIG1       -0.1908
     23 C           3.5412   -1.2064   -0.0001 C.1     1  LIG1        0.0998
     24 N           6.8388    4.4774    0.0010 N.1     1  LIG1       -0.1908
     25 C           6.2561    3.4899    0.0008 C.1     1  LIG1        0.0998
     26 C           7.5739    1.1267    0.0029 C.ar    1  LIG1        0.0915
     27 C           8.4364    0.0759    0.0033 C.ar    1  LIG1        0.1575
     28 C           9.7641    0.6124    0.0059 C.ar    1  LIG1        0.0858
     29 C           9.6546    1.9674    0.0051 C.ar    1  LIG1        0.0833
     30 N           8.3154    2.2865    0.0037 N.ar    1  LIG1       -0.3491
     31 H           7.9430    3.2081    0.0028 H       1  LIG1        0.1661
     32 O           8.1118   -1.1830    0.0032 O.3     1  LIG1       -0.5035
     33 H           8.9081   -1.7192    0.0031 H       1  LIG1        0.2923
     34 C          10.8721   -0.0676    0.0080 C.1     1  LIG1       -0.1056
     35 C          11.8959   -0.6958    0.0100 C.2     1  LIG1       -0.0111
     36 H          12.8079   -1.2555    0.0118 H       1  LIG1        0.0712
     37 C          10.5726    2.8879    0.0065 C.ar    1  LIG1        0.0833
     38 C          11.9278    2.7820    0.0237 C.ar    1  LIG1        0.0858
     39 C          12.4607    4.1111    0.0173 C.ar    1  LIG1        0.1575
     40 C          11.4079    4.9707   -0.0052 C.ar    1  LIG1        0.0914
     41 N          10.2500    4.2261   -0.0114 N.ar    1  LIG1       -0.3491
     42 H           9.3275    4.5959   -0.0271 H       1  LIG1        0.1661
     43 C          12.6106    1.6759    0.0437 C.1     1  LIG1       -0.1056
     44 C          13.2415    0.6539    0.0623 C.2     1  LIG1       -0.0111
     45 H          13.8035   -0.2565    0.0788 H       1  LIG1        0.0712
     46 O          13.7187    4.4391    0.0302 O.3     1  LIG1       -0.5035
     47 H          13.8003    5.3956    0.0334 H       1  LIG1        0.2923
     48 C          12.5871    6.9989   -0.0040 C.ar    1  LIG1        0.0616
     49 C          12.5035    8.4046   -0.0180 C.ar    1  LIG1       -0.0357
     50 C          11.3802    6.2703   -0.0187 C.ar    1  LIG1        0.0196
     51 C          11.2736    9.0582   -0.0462 C.ar    1  LIG1       -0.0137
     52 H          13.4226    8.9862   -0.0068 H       1  LIG1        0.0637
     53 C          10.1520    6.9223   -0.0469 C.ar    1  LIG1       -0.0478
     54 C          10.0897    8.3196   -0.0609 C.ar    1  LIG1       -0.0420
     55 H           9.2354    6.3382   -0.0577 H       1  LIG1        0.0627
     56 N          14.8011    5.9588    0.0450 N.1     1  LIG1       -0.1908
     57 C          13.7635    6.4463    0.0221 C.1     1  LIG1        0.0998
     58 C           8.9386    8.9237   -0.0870 C.3     1  LIG1       -0.0391
     59 H           8.2079    8.3205    0.4101 H       1  LIG1        0.0278
     60 H           8.6407    9.0799   -1.1028 H       1  LIG1        0.0278
     61 H           9.0198    9.8677    0.4101 H       1  LIG1        0.0278
     62 C          12.4333   11.0975   -0.0647 C.ar    1  LIG1       -0.0533
     63 C          12.3360   12.5023   -0.0767 C.ar    1  LIG1       -0.0503
     64 C          11.2332   10.3574   -0.0587 C.ar    1  LIG1       -0.0158
     65 C          11.0996   13.1441   -0.0830 C.ar    1  LIG1        0.0202
     66 H          13.2496   13.0927   -0.0812 H       1  LIG1        0.0625
     67 C           9.9987   10.9976   -0.0651 C.ar    1  LIG1       -0.0327
     68 C           9.9228   12.3943   -0.0774 C.ar    1  LIG1        0.0344
     69 H           9.0875   10.4048   -0.0602 H       1  LIG1        0.0642
     70 H          13.6152   10.5561   -0.0595 H       1  LIG1        0.0624
     71 N           8.7659   12.9872   -0.0831 N.pl3   1  LIG1       -0.3574
     72 H           8.8436   13.8649   -0.5560 H       1  LIG1        0.1423
     73 H           8.0987   12.4117   -0.5560 H       1  LIG1        0.1423
     74 C          11.0466   14.4430   -0.0942 C.ar    1  LIG1        0.0663
     75 C          12.0443   15.3663   -0.1022 C.ar    1  LIG1        0.0777
     76 C          11.4299   16.6598   -0.1122 C.ar    1  LIG1       -0.0153
     77 C          10.0838   16.4700   -0.1117 C.ar    1  LIG1        0.0851
     78 N           9.8448   15.1143   -0.1002 N.ar    1  LIG1       -0.3506
     79 H           8.9469   14.6878   -0.0974 H       1  LIG1        0.1660
     80 N          14.4456   14.8974   -0.0971 N.1     1  LIG1       -0.1908
     81 C          13.3202   15.1171   -0.0995 C.1     1  LIG1        0.1013
     82 H          12.0429   17.8062   -0.1207 H       1  LIG1        0.0653
     83 C           9.1104   17.3317   -0.1189 C.ar    1  LIG1        0.1699
     84 C           9.0152   18.7078   -0.1095 C.ar    1  LIG1        0.1132
     85 C           7.6027   19.0261   -0.1272 C.ar    1  LIG1        0.1709
     86 C           6.9281   17.8227   -0.1463 C.ar    1  LIG1        0.1352
     87 O           7.8361   16.7632   -0.1417 O.2     1  LIG1       -0.4564
     88 H           5.6796   17.4609   -0.1669 H       1  LIG1        0.1068
     89 C           9.9859   19.5724   -0.0888 C.1     1  LIG1       -0.0621
     90 C          10.8827   20.3713   -0.0697 C.1     1  LIG1       -0.1137
     91 H          11.6816   21.0829   -0.0527 H       1  LIG1        0.1232
     92 O           7.0956   20.2231   -0.1251 O.3     1  LIG1       -0.5028
     93 H           6.1374   20.1652   -0.1246 H       1  LIG1        0.2923
@<TRIPOS>BOND
     1    60    58    1
     2    73    71    1
     3    72    71    1
     4    88    86    1
     5    86    87   ar
     6    86    85   ar
     7    87    83   ar
     8    85    92    1
     9    85    84   ar
    10    92    93    1
    11    82    76    1
    12    83    77    1
    13    83    84   ar
    14    76    77   ar
    15    76    75   ar
    16    77    78   ar
    17    84    89    1
    18    75    81    1
    19    75    74   ar
    20    78    79    1
    21    78    74   ar
    22    81    80    3
    23    74    65    1
    24    89    90    3
    25    58    54    1
    26    58    61    1
    27    58    59    1
    28    71    68    1
    29    65    68   ar
    30    65    63   ar
    31    66    63    1
    32    68    67   ar
    33    63    62   ar
    34    90    91    1
    35    67    69    1
    36    67    64   ar
    37    62    70    1
    38    62    64   ar
    39    54    53   ar
    40    54    51   ar
    41    64    51    1
    42    55    53    1
    43    53    50   ar
    44    51    49   ar
    45    42    41    1
    46    50    40    1
    47    50    48   ar
    48    49    52    1
    49    49    48   ar
    50    41    40   ar
    51    41    37   ar
    52    40    39   ar
    53    48    57    1
    54    12    13    3
    55    13     7    1
    56    21    19    1
    57     7     4   ar
    58     7     6   ar
    59    16    19   ar
    60    16     4    1
    61    16    14   ar
    62    19    20   ar
    63     4     2   ar
    64     6     8    1
    65     6     3   ar
    66    22    23    3
    67    23    14    1
    68     1     2   ar
    69     1     3   ar
    70     1    11    1
    71     2     5    1
    72     3     9    1
    73    14    15   ar
    74    11    10    3
    75    20    25    1
    76    20    17   ar
    77    25    24    3
    78    15    17   ar
    79    15    18    1
    80    17    26    1
    81    31    30    1
    82    26    27   ar
    83    26    30   ar
    84    33    32    1
    85    32    27    1
    86    27    28   ar
    87    30    29   ar
    88    29    28   ar
    89    29    37    2
    90    28    34    2
    91    37    38   ar
    92    34    35    2
    93    35    36    1
    94    35    44    1
    95    39    38   ar
    96    39    46    1
    97    57    56    3
    98    38    43    2
    99    46    47    1
   100    43    44    2
   101    44    45    1
