@<TRIPOS>MOLECULE
mol_data/noopt/geoms/mol2/4dd4dd.out
 26 27 0 0 0
SMALL
GASTEIGER

@<TRIPOS>ATOM
      1 C           0.0509    0.0309    0.0002 C.ar    1  LIG1        0.0524
      2 C           1.4592    0.0309    0.0002 C.ar    1  LIG1       -0.0354
      3 C          -0.6045    1.2792    0.0002 C.ar    1  LIG1       -0.0431
      4 C           2.1849    1.2200   -0.0004 C.ar    1  LIG1        0.0020
      5 H           1.9850   -0.9213    0.0004 H       1  LIG1        0.0637
      6 C           0.1195    2.4666   -0.0004 C.ar    1  LIG1       -0.0425
      7 C           1.5181    2.4458   -0.0008 C.ar    1  LIG1        0.0596
      8 H          -0.4090    3.4165   -0.0003 H       1  LIG1        0.0631
      9 H          -1.9035    1.3287    0.0016 H       1  LIG1        0.0631
     10 N          -1.1192   -2.1177    0.0008 N.1     1  LIG1       -0.1909
     11 C          -0.5708   -1.1108    0.0005 C.1     1  LIG1        0.0992
     12 N           2.7818    4.5408   -0.0016 N.1     1  LIG1       -0.1909
     13 C           2.1896    3.5590   -0.0012 C.1     1  LIG1        0.0998
     14 C           4.1518   -0.0588    0.0002 C.ar    1  LIG1        0.0596
     15 C           5.5600   -0.0451    0.0016 C.ar    1  LIG1       -0.0425
     16 C           3.4843    1.1831   -0.0005 C.ar    1  LIG1        0.0020
     17 C           6.2742    1.1510    0.0017 C.ar    1  LIG1       -0.0431
     18 H           6.0950   -0.9922    0.0024 H       1  LIG1        0.0631
     19 C           4.1968    2.3775   -0.0004 C.ar    1  LIG1       -0.0354
     20 C           5.5955    2.3702    0.0006 C.ar    1  LIG1        0.0524
     21 H           3.6591    3.3222   -0.0009 H       1  LIG1        0.0637
     22 H           7.5740    1.1267    0.0029 H       1  LIG1        0.0631
     23 N           3.0026   -2.2187   -0.0003 N.1     1  LIG1       -0.1909
     24 C           3.5412   -1.2064   -0.0001 C.1     1  LIG1        0.0998
     25 N           6.8388    4.4774    0.0010 N.1     1  LIG1       -0.1909
     26 C           6.2561    3.4899    0.0008 C.1     1  LIG1        0.0992
@<TRIPOS>BOND
     1    12    13    3
     2    13     7    1
     3    21    19    1
     4     7     4   ar
     5     7     6   ar
     6    16    19   ar
     7    16     4    1
     8    16    14   ar
     9    19    20   ar
    10     4     2   ar
    11     6     8    1
    12     6     3   ar
    13    23    24    3
    14    24    14    1
    15     2     1   ar
    16     2     5    1
    17     3     1   ar
    18     3     9    1
    19     1    11    1
    20    14    15   ar
    21    11    10    3
    22    20    26    1
    23    20    17   ar
    24    26    25    3
    25    15    17   ar
    26    15    18    1
    27    17    22    1
