@<TRIPOS>MOLECULE
mol_data/noopt/geoms/mol2/4dd4le(60)6ih(90)13al(60).out
 56 59 0 0 0
SMALL
GASTEIGER

@<TRIPOS>ATOM
      1 C           0.0509    0.0309    0.0002 C.ar    1  LIG1        0.0524
      2 C           1.4592    0.0309    0.0002 C.ar    1  LIG1       -0.0353
      3 C          -0.6045    1.2792    0.0002 C.ar    1  LIG1       -0.0431
      4 C           2.1849    1.2200   -0.0004 C.ar    1  LIG1        0.0042
      5 H           1.9850   -0.9213    0.0004 H       1  LIG1        0.0637
      6 C           0.1195    2.4666   -0.0004 C.ar    1  LIG1       -0.0425
      7 C           1.5181    2.4458   -0.0008 C.ar    1  LIG1        0.0596
      8 H          -0.4090    3.4165   -0.0003 H       1  LIG1        0.0631
      9 H          -1.9035    1.3287    0.0016 H       1  LIG1        0.0631
     10 N          -1.1192   -2.1177    0.0008 N.1     1  LIG1       -0.1909
     11 C          -0.5708   -1.1108    0.0005 C.1     1  LIG1        0.0992
     12 N           2.7818    4.5408   -0.0016 N.1     1  LIG1       -0.1909
     13 C           2.1896    3.5590   -0.0012 C.1     1  LIG1        0.0998
     14 C           4.1692    0.5528    1.0585 C.ar    1  LIG1        0.1284
     15 C           5.5767    0.5410    1.0127 C.ar    1  LIG1       -0.0113
     16 C           3.4843    1.1831   -0.0005 C.ar    1  LIG1        0.0253
     17 C           6.2736    1.1295   -0.0403 C.ar    1  LIG1       -0.0092
     18 H           6.1251    0.0601    1.8197 H       1  LIG1        0.0660
     19 C           4.1795    1.7708   -1.0519 C.ar    1  LIG1       -0.0464
     20 C           5.5778    1.7483   -1.0796 C.ar    1  LIG1       -0.0349
     21 H           3.6285    2.2508   -1.8567 H       1  LIG1        0.0628
     22 O           3.5752   -0.0132    2.0669 O.3     1  LIG1       -0.4945
     23 C           2.4272    0.7550    2.4370 C.3     1  LIG1        0.0788
     24 H           1.9385    0.2888    3.2669 H       1  LIG1        0.0660
     25 H           2.7327    1.7430    2.7121 H       1  LIG1        0.0660
     26 H           1.7515    0.8082    1.6091 H       1  LIG1        0.0660
     27 C           6.2222    2.2995   -2.0649 C.3     1  LIG1       -0.0048
     28 C           6.8176    2.8087   -2.9754 C.3     1  LIG1       -0.0263
     29 H           7.3481    3.2624   -3.7864 H       1  LIG1        0.0313
     30 C           8.2744    1.0843   -1.2702 C.ar    1  LIG1        0.0502
     31 C           7.5732    1.1001   -0.0506 C.ar    1  LIG1        0.0056
     32 C           8.3039    1.0836    1.1388 C.ar    1  LIG1       -0.0295
     33 C           9.6978    1.0522    1.0708 C.ar    1  LIG1        0.0529
     34 C          10.3081    1.0383   -0.1968 C.ar    1  LIG1        0.1081
     35 N           9.6186    1.0540   -1.3543 N.ar    1  LIG1       -0.2477
     36 H           7.7907    1.0941    2.1109 H       1  LIG1        0.0643
     37 C           7.6383    1.0987   -2.4042 C.3     1  LIG1       -0.0044
     38 H           7.0042    0.2392   -2.4684 H       1  LIG1        0.0332
     39 H           8.3433    1.0827   -3.2089 H       1  LIG1        0.0332
     40 H           7.0438    1.9861   -2.4684 H       1  LIG1        0.0358
     41 N          10.4231    1.0357    2.1496 N.pl3   1  LIG1       -0.3563
     42 H          10.9816    0.2062    2.1631 H       1  LIG1        0.1424
     43 H          11.0187    1.8388    2.1631 H       1  LIG1        0.1424
     44 C          11.6027    1.0091   -0.3119 C.ar    1  LIG1        0.0703
     45 C          12.5461    0.4375    0.4826 C.ar    1  LIG1        0.0070
     46 C          13.8227    0.7083   -0.1067 C.ar    1  LIG1        0.1379
     47 C          13.6033    1.4320   -1.2364 C.ar    1  LIG1        0.0444
     48 N          12.2455    1.6188   -1.3655 N.ar    1  LIG1       -0.3563
     49 H          11.7999    2.1147   -2.1028 H       1  LIG1        0.1655
     50 H          14.4412    1.9121   -2.1067 H       1  LIG1        0.0844
     51 H          12.3260   -0.2300    1.5762 H       1  LIG1        0.0676
     52 O          14.9802    0.3326    0.3508 O.3     1  LIG1       -0.4936
     53 C          14.9890   -1.0875    0.5187 C.3     1  LIG1        0.0789
     54 H          15.9419   -1.3962    0.8951 H       1  LIG1        0.0660
     55 H          14.2236   -1.3695    1.2111 H       1  LIG1        0.0660
     56 H          14.8082   -1.5593   -0.4245 H       1  LIG1        0.0660
@<TRIPOS>BOND
     1    29    28    1
     2    39    37    1
     3    28    27    1
     4    38    37    1
     5    40    27    1
     6    37    30    1
     7    50    47    1
     8    49    48    1
     9    27    20    1
    10    21    19    1
    11    48    47   ar
    12    48    44   ar
    13    35    30   ar
    14    35    34   ar
    15    30    31   ar
    16    47    46   ar
    17    20    19   ar
    18    20    17   ar
    19    19    16   ar
    20    56    53    1
    21    44    34    1
    22    44    45   ar
    23    34    33   ar
    24    46    52    1
    25    46    45   ar
    26    31    17    1
    27    31    32   ar
    28    17    15   ar
    29    12    13    3
    30    13     7    1
    31     7     6   ar
    32     7     4   ar
    33    16     4    1
    34    16    14   ar
    35     6     8    1
    36     6     3   ar
    37     4     2   ar
    38     3     1   ar
    39     3     9    1
    40     2     1   ar
    41     2     5    1
    42     1    11    1
    43    11    10    3
    44    52    53    1
    45    45    51    1
    46    53    54    1
    47    53    55    1
    48    15    14   ar
    49    15    18    1
    50    14    22    1
    51    33    32   ar
    52    33    41    1
    53    32    36    1
    54    26    23    1
    55    22    23    1
    56    41    42    1
    57    41    43    1
    58    23    25    1
    59    23    24    1
