@<TRIPOS>MOLECULE
mol_data/noopt/geoms/mol2/4dd4dd4dd4dd.out
 50 53 0 0 0
SMALL
GASTEIGER

@<TRIPOS>ATOM
      1 C           0.0509    0.0309    0.0002 C.ar    1  LIG1        0.0524
      2 C           1.4592    0.0309    0.0002 C.ar    1  LIG1       -0.0354
      3 C          -0.6045    1.2792    0.0002 C.ar    1  LIG1       -0.0431
      4 C           2.1849    1.2200   -0.0004 C.ar    1  LIG1        0.0020
      5 H           1.9850   -0.9213    0.0004 H       1  LIG1        0.0637
      6 C           0.1195    2.4666   -0.0004 C.ar    1  LIG1       -0.0425
      7 C           1.5181    2.4458   -0.0008 C.ar    1  LIG1        0.0596
      8 H          -0.4090    3.4165   -0.0003 H       1  LIG1        0.0631
      9 H          -1.9035    1.3287    0.0016 H       1  LIG1        0.0631
     10 N          -1.1192   -2.1177    0.0008 N.1     1  LIG1       -0.1909
     11 C          -0.5708   -1.1108    0.0005 C.1     1  LIG1        0.0992
     12 N           2.7818    4.5408   -0.0016 N.1     1  LIG1       -0.1909
     13 C           2.1896    3.5590   -0.0012 C.1     1  LIG1        0.0998
     14 C           4.1518   -0.0588    0.0002 C.ar    1  LIG1        0.0601
     15 C           5.5600   -0.0451    0.0016 C.ar    1  LIG1       -0.0348
     16 C           3.4843    1.1831   -0.0005 C.ar    1  LIG1        0.0020
     17 C           6.2742    1.1510    0.0017 C.ar    1  LIG1        0.0020
     18 H           6.0950   -0.9922    0.0024 H       1  LIG1        0.0637
     19 C           4.1968    2.3775   -0.0004 C.ar    1  LIG1       -0.0348
     20 C           5.5955    2.3702    0.0006 C.ar    1  LIG1        0.0601
     21 H           3.6591    3.3222   -0.0009 H       1  LIG1        0.0637
     22 N           3.0026   -2.2187   -0.0003 N.1     1  LIG1       -0.1908
     23 C           3.5412   -1.2064   -0.0001 C.1     1  LIG1        0.0998
     24 N           6.8388    4.4774    0.0010 N.1     1  LIG1       -0.1908
     25 C           6.2561    3.4899    0.0008 C.1     1  LIG1        0.0998
     26 C           8.2534   -0.1087    0.0043 C.ar    1  LIG1        0.0601
     27 C           9.6614   -0.0814    0.0071 C.ar    1  LIG1       -0.0348
     28 C           7.5739    1.1267    0.0029 C.ar    1  LIG1        0.0020
     29 C          10.3639    1.1216    0.0079 C.ar    1  LIG1        0.0020
     30 H          10.2056   -1.0232    0.0084 H       1  LIG1        0.0637
     31 C           8.2747    2.3279    0.0036 C.ar    1  LIG1       -0.0348
     32 C           9.6734    2.3342    0.0060 C.ar    1  LIG1        0.0601
     33 H           7.7279    3.2674    0.0026 H       1  LIG1        0.0637
     34 N           7.1251   -2.2796    0.0027 N.1     1  LIG1       -0.1908
     35 C           7.6539   -1.2622    0.0034 C.1     1  LIG1        0.0998
     36 N          10.8963    4.4533    0.0077 N.1     1  LIG1       -0.1908
     37 C          10.3232    3.4602    0.0069 C.1     1  LIG1        0.0998
     38 C          12.3552   -0.1188    0.0125 C.ar    1  LIG1        0.0596
     39 C          13.7629   -0.0778    0.0167 C.ar    1  LIG1       -0.0425
     40 C          11.6638    1.1099    0.0104 C.ar    1  LIG1        0.0020
     41 C          14.4537    1.1319    0.0181 C.ar    1  LIG1       -0.0431
     42 H          14.3162   -1.0143    0.0186 H       1  LIG1        0.0631
     43 C          12.3529    2.3179    0.0118 C.ar    1  LIG1       -0.0354
     44 C          13.7515    2.3378    0.0156 C.ar    1  LIG1        0.0524
     45 H          11.7970    3.2520    0.0102 H       1  LIG1        0.0637
     46 H          15.7537    1.1328    0.0219 H       1  LIG1        0.0631
     47 N          11.2481   -2.3006    0.0098 N.1     1  LIG1       -0.1909
     48 C          11.7670   -1.2781    0.0110 C.1     1  LIG1        0.0998
     49 N          14.9538    4.4686    0.0184 N.1     1  LIG1       -0.1909
     50 C          14.3903    3.4700    0.0171 C.1     1  LIG1        0.0992
@<TRIPOS>BOND
     1    12    13    3
     2    13     7    1
     3    21    19    1
     4     7     4   ar
     5     7     6   ar
     6    16    19   ar
     7    16     4    1
     8    16    14   ar
     9    19    20   ar
    10     4     2   ar
    11     6     8    1
    12     6     3   ar
    13    22    23    3
    14    23    14    1
    15     2     1   ar
    16     2     5    1
    17     3     1   ar
    18     3     9    1
    19     1    11    1
    20    14    15   ar
    21    11    10    3
    22    20    25    1
    23    20    17   ar
    24    25    24    3
    25    15    17   ar
    26    15    18    1
    27    17    28    1
    28    33    31    1
    29    34    35    3
    30    28    31   ar
    31    28    26   ar
    32    35    26    1
    33    31    32   ar
    34    26    27   ar
    35    32    37    1
    36    32    29   ar
    37    37    36    3
    38    27    29   ar
    39    27    30    1
    40    29    40    1
    41    47    48    3
    42    45    43    1
    43    40    43   ar
    44    40    38   ar
    45    48    38    1
    46    43    44   ar
    47    38    39   ar
    48    44    50    1
    49    44    41   ar
    50    39    41   ar
    51    39    42    1
    52    50    49    3
    53    41    46    1
