@<TRIPOS>MOLECULE
mol_data/noopt/geoms/mol2/4de12ff(150)4lf(130)13il(220).out
 54 57 0 0 0
SMALL
GASTEIGER

@<TRIPOS>ATOM
      1 C           0.0509    0.0309    0.0002 C.ar    1  LIG1        0.0525
      2 C           1.4592    0.0309    0.0002 C.ar    1  LIG1       -0.0324
      3 C          -0.6045    1.2792    0.0002 C.ar    1  LIG1       -0.0432
      4 C           2.1849    1.2200   -0.0004 C.ar    1  LIG1        0.0376
      5 H           1.9850   -0.9213    0.0004 H       1  LIG1        0.0638
      6 C           0.1195    2.4666   -0.0004 C.ar    1  LIG1       -0.0444
      7 C           1.5181    2.4458   -0.0008 C.ar    1  LIG1        0.0355
      8 H          -0.4090    3.4165   -0.0003 H       1  LIG1        0.0630
      9 H          -1.9035    1.3287    0.0016 H       1  LIG1        0.0631
     10 N          -1.1192   -2.1177    0.0008 N.1     1  LIG1       -0.1909
     11 C          -0.5708   -1.1108    0.0005 C.1     1  LIG1        0.0992
     12 C           2.1896    3.5590   -0.0012 C.1     1  LIG1       -0.0690
     13 C           2.8100    4.5875   -0.0016 C.1     1  LIG1       -0.1139
     14 H           3.3627    5.5037   -0.0019 H       1  LIG1        0.1232
     15 C           3.4844    1.1831   -0.0005 C.ar    1  LIG1        0.1819
     16 C           4.4919    2.0182    0.4361 C.ar    1  LIG1        0.2059
     17 C           5.7424    1.3594    0.1209 C.ar    1  LIG1        0.2059
     18 C           5.4158    0.1650   -0.4876 C.ar    1  LIG1        0.1843
     19 O           4.0294    0.0334   -0.5738 O.2     1  LIG1       -0.4471
     20 O           4.3709    3.1741    1.0186 O.3     1  LIG1       -0.5008
     21 H           3.4410    3.3647    1.1622 H       1  LIG1        0.2924
     22 O           6.9292    1.8259    0.3737 O.3     1  LIG1       -0.5008
     23 H           6.8907    2.7831    0.4360 H       1  LIG1        0.2924
     24 C           7.2955   -1.2353   -0.3862 C.ar    1  LIG1        0.1317
     25 C           7.9809   -2.3226   -0.9618 C.ar    1  LIG1       -0.0066
     26 C           6.0828   -0.8346   -0.9834 C.ar    1  LIG1        0.0661
     27 C           7.4825   -2.9835   -2.0822 C.ar    1  LIG1        0.0435
     28 H           8.9186   -2.6480   -0.5169 H       1  LIG1        0.0662
     29 C           5.5848   -1.4942   -2.1019 C.ar    1  LIG1       -0.0052
     30 C           6.2802   -2.5724   -2.6589 C.ar    1  LIG1        0.1268
     31 H           4.6475   -1.1662   -2.5443 H       1  LIG1        0.0662
     32 O           7.8104   -0.6587    0.6591 O.3     1  LIG1       -0.4944
     33 C           9.0049   -1.3450    1.0428 C.3     1  LIG1        0.0788
     34 H           9.4284   -0.8700    1.9030 H       1  LIG1        0.0660
     35 H           8.7722   -2.3630    1.2759 H       1  LIG1        0.0660
     36 H           9.7078   -1.3154    0.2367 H       1  LIG1        0.0660
     37 O           5.8098   -3.1850   -3.7047 O.3     1  LIG1       -0.5061
     38 H           6.4117   -3.8871   -3.9624 H       1  LIG1        0.2922
     39 C           8.1413   -3.9837   -2.5877 C.ar    1  LIG1        0.0566
     40 C           9.1372   -4.0065   -3.5127 C.ar    1  LIG1        0.0166
     41 C           9.5063   -5.3760   -3.7101 C.ar    1  LIG1        0.1408
     42 C           8.7209   -6.1297   -2.8958 C.ar    1  LIG1        0.0446
     43 N           7.8834   -5.2814   -2.2072 N.ar    1  LIG1       -0.3573
     44 H           7.2013   -5.5613   -1.5406 H       1  LIG1        0.1655
     45 H           8.6796   -7.4169   -2.7188 H       1  LIG1        0.0844
     46 C           9.6556   -2.9731   -4.1077 C.3     1  LIG1       -0.0342
     47 H           9.1204   -2.0916   -3.8224 H       1  LIG1        0.0279
     48 H           9.5908   -3.1022   -5.1680 H       1  LIG1        0.0279
     49 H          10.6822   -2.8750   -3.8224 H       1  LIG1        0.0279
     50 O          10.4231   -5.8204   -4.5177 O.3     1  LIG1       -0.4933
     51 C          10.1716   -7.1965   -4.8142 C.3     1  LIG1        0.0789
     52 H          10.9262   -7.5618   -5.4790 H       1  LIG1        0.0660
     53 H          10.1886   -7.7655   -3.9082 H       1  LIG1        0.0660
     54 H           9.2117   -7.2920   -5.2773 H       1  LIG1        0.0660
@<TRIPOS>BOND
     1    52    51    1
     2    54    51    1
     3    48    46    1
     4    51    50    1
     5    51    53    1
     6    50    41    1
     7    46    49    1
     8    46    47    1
     9    46    40    1
    10    38    37    1
    11    41    40   ar
    12    41    42   ar
    13    37    30    1
    14    40    39   ar
    15    42    45    1
    16    42    43   ar
    17    30    29   ar
    18    30    27   ar
    19    39    43   ar
    20    39    27    1
    21    31    29    1
    22    43    44    1
    23    29    26   ar
    24    27    25   ar
    25    26    18    1
    26    26    24   ar
    27    25    28    1
    28    25    24   ar
    29    19    18   ar
    30    19    15   ar
    31    18    17   ar
    32    24    32    1
    33    14    13    1
    34    13    12    3
    35    12     7    1
    36     7     4   ar
    37     7     6   ar
    38    15     4    1
    39    15    16   ar
    40     4     2   ar
    41     6     8    1
    42     6     3   ar
    43     2     1   ar
    44     2     5    1
    45     3     1   ar
    46     3     9    1
    47     1    11    1
    48    11    10    3
    49    17    22    1
    50    17    16   ar
    51    36    33    1
    52    22    23    1
    53    16    20    1
    54    32    33    1
    55    20    21    1
    56    33    35    1
    57    33    34    1
