@<TRIPOS>MOLECULE
mol_data/noopt/geoms/mol2/4de13de(350)6ed(140)4ai(340).out
 51 54 0 0 0
SMALL
GASTEIGER

@<TRIPOS>ATOM
      1 C           0.0509    0.0309    0.0002 C.ar    1  LIG1        0.0525
      2 C           1.4592    0.0309    0.0002 C.ar    1  LIG1       -0.0340
      3 C          -0.6045    1.2792    0.0002 C.ar    1  LIG1       -0.0432
      4 C           2.1849    1.2200   -0.0004 C.ar    1  LIG1        0.0162
      5 H           1.9850   -0.9213    0.0004 H       1  LIG1        0.0637
      6 C           0.1195    2.4666   -0.0004 C.ar    1  LIG1       -0.0445
      7 C           1.5181    2.4458   -0.0008 C.ar    1  LIG1        0.0339
      8 H          -0.4090    3.4165   -0.0003 H       1  LIG1        0.0630
      9 H          -1.9035    1.3287    0.0016 H       1  LIG1        0.0631
     10 N          -1.1192   -2.1177    0.0008 N.1     1  LIG1       -0.1909
     11 C          -0.5708   -1.1108    0.0005 C.1     1  LIG1        0.0992
     12 C           2.1896    3.5590   -0.0012 C.1     1  LIG1       -0.0690
     13 C           2.8100    4.5875   -0.0016 C.1     1  LIG1       -0.1139
     14 H           3.3627    5.5037   -0.0019 H       1  LIG1        0.1232
     15 C           3.4844    1.1831   -0.0005 C.ar    1  LIG1        0.0669
     16 C           4.3370    0.1374   -0.1666 C.ar    1  LIG1        0.0929
     17 C           5.6696    0.6536   -0.0755 C.ar    1  LIG1        0.0679
     18 C           5.5728    1.9922    0.1405 C.ar    1  LIG1        0.0665
     19 N           4.2367    2.3206    0.1875 N.ar    1  LIG1       -0.3520
     20 H           3.8729    3.2340    0.3335 H       1  LIG1        0.1660
     21 N           3.7041   -2.1950   -0.5475 N.1     1  LIG1       -0.1908
     22 C           4.0007   -1.1019   -0.3690 C.1     1  LIG1        0.1025
     23 C           6.7712   -0.0288   -0.1800 C.1     1  LIG1       -0.0662
     24 C           7.7891   -0.6593   -0.2766 C.1     1  LIG1       -0.1138
     25 H           8.6958   -1.2209   -0.3626 H       1  LIG1        0.1232
     26 C           7.7189    2.7790   -0.4013 C.ar    1  LIG1        0.1230
     27 C           6.4993    2.8916    0.2911 C.ar    1  LIG1        0.0346
     28 C           6.3116    3.9860    1.1372 C.ar    1  LIG1       -0.0304
     29 C           7.3391    4.9227    1.2624 C.ar    1  LIG1        0.0784
     30 C           8.5228    4.7230    0.5285 C.ar    1  LIG1        0.0897
     31 N           8.7206    3.6732   -0.2924 N.ar    1  LIG1       -0.2365
     32 H           5.3724    4.1071    1.6954 H       1  LIG1        0.0638
     33 C           7.9406    1.7780   -1.2006 C.1     1  LIG1       -0.0491
     34 C           8.1454    0.8531   -1.9391 C.1     1  LIG1       -0.1124
     35 H           8.3279    0.0292   -2.5970 H       1  LIG1        0.1232
     36 N           7.1023    6.8725    2.7211 N.1     1  LIG1       -0.1908
     37 C           7.2132    5.9587    2.0375 C.1     1  LIG1        0.1013
     38 C          10.8080    5.1687    0.2401 C.ar    1  LIG1       -0.0525
     39 C          11.8408    6.1198    0.3498 C.ar    1  LIG1       -0.0609
     40 C           9.5077    5.5674    0.6117 C.ar    1  LIG1        0.0019
     41 C          11.5921    7.4115    0.8084 C.ar    1  LIG1       -0.0588
     42 H          12.8516    5.8331    0.0685 H       1  LIG1        0.0618
     43 C           9.2589    6.8568    1.0695 C.ar    1  LIG1       -0.0496
     44 C          10.2981    7.7874    1.1711 C.ar    1  LIG1       -0.0498
     45 H           8.2476    7.1400    1.3501 H       1  LIG1        0.0627
     46 H          12.5693    8.2643    0.8970 H       1  LIG1        0.0620
     47 H          11.1017    3.9793   -0.1946 H       1  LIG1        0.0624
     48 C          10.0595    8.9916    1.6000 C.3     1  LIG1       -0.0397
     49 H           9.1694    8.9888    2.1939 H       1  LIG1        0.0278
     50 H           9.9293    9.6483    0.7653 H       1  LIG1        0.0278
     51 H          10.8834    9.3284    2.1938 H       1  LIG1        0.0278
@<TRIPOS>BOND
     1    35    34    1
     2    34    33    3
     3    33    26    1
     4    21    22    3
     5    26    31   ar
     6    26    27   ar
     7    22    16    1
     8    25    24    1
     9    31    30   ar
    10    24    23    3
    11    47    38    1
    12    23    17    1
    13    16    17   ar
    14    16    15   ar
    15    17    18   ar
    16    14    13    1
    17    13    12    3
    18    12     7    1
    19     7     6   ar
    20     7     4   ar
    21    15     4    1
    22    15    19   ar
    23     6     8    1
    24     6     3   ar
    25     4     2   ar
    26     1     2   ar
    27     1     3   ar
    28     1    11    1
    29     2     5    1
    30     3     9    1
    31    11    10    3
    32    42    39    1
    33    18    19   ar
    34    18    27    1
    35    19    20    1
    36    38    39   ar
    37    38    40   ar
    38    27    28   ar
    39    39    41   ar
    40    30    40    1
    41    30    29   ar
    42    40    43   ar
    43    50    48    1
    44    41    46    1
    45    41    44   ar
    46    43    44   ar
    47    43    45    1
    48    28    29   ar
    49    28    32    1
    50    44    48    1
    51    29    37    1
    52    48    51    1
    53    48    49    1
    54    37    36    3
