@<TRIPOS>MOLECULE
mol_data/noopt/geoms/mol2/4de4hi(110)4ah(10)12ee(240).out
 53 56 0 0 0
SMALL
GASTEIGER

@<TRIPOS>ATOM
      1 C           0.0509    0.0309    0.0002 C.ar    1  LIG1        0.0524
      2 C           1.4592    0.0309    0.0002 C.ar    1  LIG1       -0.0354
      3 C          -0.6045    1.2792    0.0002 C.ar    1  LIG1       -0.0432
      4 C           2.1849    1.2200   -0.0004 C.ar    1  LIG1        0.0005
      5 H           1.9850   -0.9213    0.0004 H       1  LIG1        0.0637
      6 C           0.1195    2.4666   -0.0004 C.ar    1  LIG1       -0.0445
      7 C           1.5181    2.4458   -0.0008 C.ar    1  LIG1        0.0325
      8 H          -0.4090    3.4165   -0.0003 H       1  LIG1        0.0630
      9 H          -1.9035    1.3287    0.0016 H       1  LIG1        0.0631
     10 N          -1.1192   -2.1177    0.0008 N.1     1  LIG1       -0.1909
     11 C          -0.5708   -1.1108    0.0005 C.1     1  LIG1        0.0992
     12 C           2.1896    3.5590   -0.0012 C.1     1  LIG1       -0.0691
     13 C           2.8100    4.5875   -0.0016 C.1     1  LIG1       -0.1139
     14 H           3.3627    5.5037   -0.0019 H       1  LIG1        0.1232
     15 C           4.1985    1.5818    1.1479 C.ar    1  LIG1        0.0330
     16 C           5.6047    1.5250    1.0969 C.ar    1  LIG1       -0.0325
     17 C           3.4843    1.1831   -0.0005 C.ar    1  LIG1        0.0042
     18 C           6.2724    1.0901   -0.0458 C.ar    1  LIG1       -0.0131
     19 H           6.1753    1.8282    1.9719 H       1  LIG1        0.0642
     20 C           4.1504    0.7489   -1.1415 C.ar    1  LIG1       -0.0487
     21 C           5.5480    0.6991   -1.1725 C.ar    1  LIG1       -0.0421
     22 H           3.5773    0.4468   -2.0143 H       1  LIG1        0.0627
     23 N           3.6323    1.9961    2.2424 N.pl3   1  LIG1       -0.3575
     24 H           3.6489    2.9956    2.2686 H       1  LIG1        0.1423
     25 H           2.6847    1.6777    2.2686 H       1  LIG1        0.1423
     26 C           6.1653    0.2924   -2.2422 C.3     1  LIG1       -0.0391
     27 H           7.1618    0.6821   -2.2488 H       1  LIG1        0.0278
     28 H           5.6417    0.6375   -3.1092 H       1  LIG1        0.0278
     29 H           6.2005   -0.7770   -2.2488 H       1  LIG1        0.0278
     30 C           8.2388   -0.1747    0.1481 C.ar    1  LIG1       -0.0532
     31 C           9.6469   -0.1650    0.1269 C.ar    1  LIG1       -0.0487
     32 C           7.5717    1.0501   -0.0582 C.ar    1  LIG1       -0.0158
     33 C          10.3613    1.0110   -0.0906 C.ar    1  LIG1        0.0391
     34 H          10.1816   -1.0991    0.2841 H       1  LIG1        0.0625
     35 C           8.2844    2.2244   -0.2753 C.ar    1  LIG1       -0.0326
     36 C           9.6830    2.2136   -0.2932 C.ar    1  LIG1        0.0359
     37 H           7.7470    3.1563   -0.4317 H       1  LIG1        0.0642
     38 H           7.6279   -1.3034    0.3555 H       1  LIG1        0.0624
     39 N          10.3439    3.3145   -0.4965 N.pl3   1  LIG1       -0.3574
     40 H          11.1754    3.1133   -1.0142 H       1  LIG1        0.1423
     41 H           9.7754    3.9537   -1.0142 H       1  LIG1        0.1423
     42 C          11.6609    0.9837   -0.1039 C.ar    1  LIG1        0.1531
     43 C          12.6469    1.4955   -0.9217 C.ar    1  LIG1        0.0858
     44 C          13.9132    1.0846   -0.3518 C.ar    1  LIG1        0.0783
     45 C          13.6167    0.3487    0.7770 C.ar    1  LIG1        0.1092
     46 O          12.2344    0.2725    0.9511 O.2     1  LIG1       -0.4604
     47 H          14.3083   -0.2706    1.6871 H       1  LIG1        0.1042
     48 C          12.4971    2.2091   -1.9979 C.1     1  LIG1       -0.0646
     49 C          12.3587    2.8685   -2.9924 C.1     1  LIG1       -0.1138
     50 H          12.2353    3.4558   -3.8782 H       1  LIG1        0.1232
     51 C          15.0876    1.3683   -0.8316 C.1     1  LIG1       -0.0653
     52 C          16.1728    1.6304   -1.2749 C.1     1  LIG1       -0.1138
     53 H          17.1395    1.8639   -1.6698 H       1  LIG1        0.1232
@<TRIPOS>BOND
     1    50    49    1
     2    28    26    1
     3    49    48    3
     4    27    26    1
     5    29    26    1
     6    26    21    1
     7    22    20    1
     8    48    43    1
     9    53    52    1
    10    52    51    3
    11    21    20   ar
    12    21    18   ar
    13    20    17   ar
    14    41    39    1
    15    40    39    1
    16    43    44   ar
    17    43    42   ar
    18    51    44    1
    19    39    36    1
    20    37    35    1
    21    44    45   ar
    22    36    35   ar
    23    36    33   ar
    24    35    32   ar
    25    42    33    1
    26    42    46   ar
    27    33    31   ar
    28    32    18    1
    29    32    30   ar
    30    18    16   ar
    31    14    13    1
    32    13    12    3
    33    12     7    1
    34     7     4   ar
    35     7     6   ar
    36    17     4    1
    37    17    15   ar
    38     4     2   ar
    39     6     8    1
    40     6     3   ar
    41     3     1   ar
    42     3     9    1
    43     2     1   ar
    44     2     5    1
    45     1    11    1
    46    11    10    3
    47    31    30   ar
    48    31    34    1
    49    30    38    1
    50    45    46   ar
    51    45    47    1
    52    16    15   ar
    53    16    19    1
    54    15    23    1
    55    23    24    1
    56    23    25    1
