@<TRIPOS>MOLECULE
mol_data/noopt/geoms/mol2/4de4df-13ee-4fi-.out
 53 56 0 0 0
SMALL
GASTEIGER

@<TRIPOS>ATOM
      1 C           0.0509    0.0309    0.0002 C.ar    1  LIG1        0.0524
      2 C           1.4592    0.0309    0.0002 C.ar    1  LIG1       -0.0354
      3 C          -0.6045    1.2792    0.0002 C.ar    1  LIG1       -0.0432
      4 C           2.1849    1.2200   -0.0004 C.ar    1  LIG1        0.0001
      5 H           1.9850   -0.9213    0.0004 H       1  LIG1        0.0637
      6 C           0.1195    2.4666   -0.0004 C.ar    1  LIG1       -0.0445
      7 C           1.5181    2.4458   -0.0008 C.ar    1  LIG1        0.0325
      8 H          -0.4090    3.4165   -0.0003 H       1  LIG1        0.0630
      9 H          -1.9035    1.3287    0.0016 H       1  LIG1        0.0631
     10 N          -1.1192   -2.1177    0.0008 N.1     1  LIG1       -0.1909
     11 C          -0.5708   -1.1108    0.0005 C.1     1  LIG1        0.0992
     12 C           2.1896    3.5590   -0.0012 C.1     1  LIG1       -0.0691
     13 C           2.8100    4.5875   -0.0016 C.1     1  LIG1       -0.1139
     14 H           3.3627    5.5037   -0.0019 H       1  LIG1        0.1232
     15 C           4.1518   -0.0586    0.0215 C.ar    1  LIG1        0.0603
     16 C           5.5600   -0.0449    0.0220 C.ar    1  LIG1       -0.0311
     17 C           3.4843    1.1831   -0.0005 C.ar    1  LIG1        0.0042
     18 C           6.2742    1.1510    0.0009 C.ar    1  LIG1        0.0422
     19 H           6.0951   -0.9918    0.0390 H       1  LIG1        0.0638
     20 C           4.1968    2.3773   -0.0216 C.ar    1  LIG1       -0.0105
     21 C           5.5955    2.3701   -0.0212 C.ar    1  LIG1        0.1266
     22 H           3.6591    3.3219   -0.0383 H       1  LIG1        0.0661
     23 N           3.0026   -2.2182    0.0593 N.1     1  LIG1       -0.1908
     24 C           3.5412   -1.2061    0.0416 C.1     1  LIG1        0.0998
     25 O           6.2562    3.4896   -0.0408 O.3     1  LIG1       -0.5061
     26 H           5.6396    4.2254   -0.0456 H       1  LIG1        0.2922
     27 C           7.5739    1.1267    0.0018 C.ar    1  LIG1        0.0673
     28 C           8.4364    0.0761    0.0188 C.ar    1  LIG1        0.0660
     29 C           9.7641    0.6126    0.0120 C.ar    1  LIG1        0.0660
     30 C           9.6546    1.9674   -0.0104 C.ar    1  LIG1        0.0672
     31 N           8.3154    2.2865   -0.0163 N.ar    1  LIG1       -0.3520
     32 H           7.9430    3.2079   -0.0318 H       1  LIG1        0.1660
     33 C           8.1119   -1.1826    0.0389 C.1     1  LIG1       -0.0663
     34 C           7.8120   -2.3456    0.0576 C.1     1  LIG1       -0.1138
     35 H           7.5449   -3.3816    0.0742 H       1  LIG1        0.1232
     36 C          10.8721   -0.0673    0.0246 C.1     1  LIG1       -0.0663
     37 C          11.8959   -0.6954    0.0362 C.1     1  LIG1       -0.1138
     38 H          12.8079   -1.2550    0.0466 H       1  LIG1        0.1232
     39 C          11.9341    2.5221   -0.0096 C.ar    1  LIG1        0.1260
     40 C          12.8899    3.5563   -0.0240 C.ar    1  LIG1       -0.0193
     41 C          10.5726    2.8877   -0.0243 C.ar    1  LIG1        0.0412
     42 C          12.5091    4.8960   -0.0523 C.ar    1  LIG1       -0.0554
     43 H          13.9461    3.2964   -0.0129 H       1  LIG1        0.0654
     44 C          10.1918    4.2250   -0.0525 C.ar    1  LIG1       -0.0462
     45 C          11.1563    5.2380   -0.0669 C.ar    1  LIG1       -0.0496
     46 H           9.1355    4.4814   -0.0632 H       1  LIG1        0.0628
     47 H          13.4181    5.8253   -0.0651 H       1  LIG1        0.0621
     48 O          12.3507    1.2909    0.0165 O.3     1  LIG1       -0.5061
     49 H          13.3106    1.2774    0.0230 H       1  LIG1        0.2922
     50 C          10.7944    6.4867   -0.0931 C.3     1  LIG1       -0.0397
     51 H           9.8532    6.5958    0.4040 H       1  LIG1        0.0278
     52 H          10.7007    6.8096   -1.1090 H       1  LIG1        0.0278
     53 H          11.5314    7.0821    0.4039 H       1  LIG1        0.0278
@<TRIPOS>BOND
     1    52    50    1
     2    50    45    1
     3    50    53    1
     4    50    51    1
     5    45    44   ar
     6    45    42   ar
     7    47    42    1
     8    46    44    1
     9    44    41   ar
    10    42    40   ar
    11    26    25    1
    12    25    21    1
    13    22    20    1
    14    32    31    1
    15    41    30    1
    16    41    39   ar
    17    40    43    1
    18    40    39   ar
    19    20    21   ar
    20    20    17   ar
    21    21    18   ar
    22    31    30   ar
    23    31    27   ar
    24    30    29   ar
    25    39    48    1
    26    14    13    1
    27    13    12    3
    28    12     7    1
    29     7     6   ar
    30     7     4   ar
    31    17     4    1
    32    17    15   ar
    33     6     8    1
    34     6     3   ar
    35     4     2   ar
    36     1     3   ar
    37     1     2   ar
    38     1    11    1
    39     3     9    1
    40     2     5    1
    41    11    10    3
    42    18    27    1
    43    18    16   ar
    44    27    28   ar
    45    29    28   ar
    46    29    36    1
    47    48    49    1
    48    28    33    1
    49    15    16   ar
    50    15    24    1
    51    16    19    1
    52    36    37    3
    53    37    38    1
    54    33    34    3
    55    24    23    3
    56    34    35    1
