@<TRIPOS>MOLECULE
mol_data/noopt/geoms/mol2/4df13le-4he6ia-.out
 54 54 0 0 0
SMALL
GASTEIGER

@<TRIPOS>ATOM
      1 C           0.0509    0.0309    0.0002 C.2     1  LIG1        0.0656
      2 C           1.4592    0.0309    0.0002 C.3     2  LIG2        0.0000
      3 C          -0.6045    1.2792    0.0002 C.2     1  LIG1       -0.0541
      4 C           2.1849    1.2200   -0.0004 C.2     1  LIG1        0.0523
      5 H           1.9850   -0.9213    0.0004 H       2  LIG2        0.0194
      6 C           0.1195    2.4666   -0.0004 C.3     1  LIG1        0.0497
      7 C           1.5181    2.4458   -0.0008 C.2     1  LIG1        0.1118
      8 H          -0.4090    3.4165   -0.0003 H       1  LIG1        0.0432
      9 H          -1.9035    1.3287    0.0016 H       1  LIG1        0.0592
     10 N          -1.1192   -2.1177    0.0008 N.1     1  LIG1       -0.1908
     11 C          -0.5708   -1.1108    0.0005 C.1     1  LIG1        0.1001
     12 O           2.1896    3.5590   -0.0012 O.2     1  LIG1       -0.5097
     13 H           1.5802    4.3008   -0.0013 H       1  LIG1        0.2917
     14 C           3.4844    1.1831   -0.0005 C.ar    1  LIG1        0.0994
     15 C           4.3366    0.1241    0.0157 C.ar    1  LIG1        0.2200
     16 C           5.6695    0.6477    0.0079 C.ar    1  LIG1        0.0972
     17 C           5.5731    2.0035   -0.0145 C.ar    1  LIG1        0.0681
     18 N           4.2371    2.3356   -0.0192 N.ar    1  LIG1       -0.3499
     19 H           3.8736    3.2606   -0.0344 H       1  LIG1        0.1661
     20 O           3.9999   -1.1314    0.0361 O.3     1  LIG1       -0.2843
     21 C           2.5743   -1.2431    0.0435 C.3     3  LIG3       -0.0776
     22 H           2.2975   -2.2765    0.0602 H       2  LIG2        0.0194
     23 H           2.1827   -0.7550    0.9116 H       2  LIG2        0.0194
     24 H           2.1757   -0.7812   -0.8355 H       2  LIG2        0.0194
     25 C           6.7708   -0.0429    0.0195 C.1     1  LIG1       -0.0637
     26 C           7.7885   -0.6810    0.0302 C.1     1  LIG1       -0.1137
     27 H           8.6950   -1.2494    0.0398 H       1  LIG1        0.1232
     28 C           7.8579    2.5358   -0.0362 C.ar    1  LIG1        0.0344
     29 C           8.8237    3.5606   -0.0504 C.ar    1  LIG1       -0.0324
     30 C           6.4999    2.9149   -0.0291 C.ar    1  LIG1        0.0205
     31 C           8.4559    4.9043   -0.0579 C.ar    1  LIG1       -0.0109
     32 H           9.8772    3.2903   -0.0559 H       1  LIG1        0.0642
     33 C           6.1323    4.2561   -0.0365 C.ar    1  LIG1       -0.0468
     34 C           7.1065    5.2597   -0.0511 C.ar    1  LIG1       -0.0349
     35 H           5.0785    4.5229   -0.0307 H       1  LIG1        0.0628
     36 N           8.2624    1.3003   -0.0300 N.pl3   1  LIG1       -0.3574
     37 H           7.5908    0.7274   -0.4999 H       1  LIG1        0.1423
     38 H           9.1427    1.2355   -0.4999 H       1  LIG1        0.1423
     39 C           6.7569    6.5117   -0.0579 C.3     1  LIG1       -0.0048
     40 C           6.4338    7.6687   -0.0641 C.3     1  LIG1       -0.0263
     41 H           6.1460    8.6992   -0.0697 H       1  LIG1        0.0313
     42 C           9.0166    7.1851   -0.0995 C.ar    1  LIG1        0.0493
     43 C           9.3739    5.8246   -0.0712 C.ar    1  LIG1        0.0038
     44 C          10.7296    5.4916   -0.0576 C.ar    1  LIG1       -0.0509
     45 C          11.6742    6.5192   -0.0727 C.ar    1  LIG1       -0.0430
     46 C          11.2184    7.8500   -0.1011 C.ar    1  LIG1        0.0279
     47 N           9.9145    8.1892   -0.1144 N.ar    1  LIG1       -0.2593
     48 H          11.0470    4.4394   -0.0365 H       1  LIG1        0.0625
     49 H          12.0592    8.8413   -0.1159 H       1  LIG1        0.0829
     50 C           7.7672    7.5451   -0.1130 C.3     1  LIG1       -0.0044
     51 H           7.1775    6.8058    0.3877 H       1  LIG1        0.0358
     52 H           7.4345    7.6409   -1.1255 H       1  LIG1        0.0332
     53 H           7.6614    8.4848    0.3877 H       1  LIG1        0.0332
     54 H          12.9483    6.2611   -0.0611 H       1  LIG1        0.0633
@<TRIPOS>BOND
     1    52    50    1
     2    24    21    1
     3    38    36    1
     4    37    36    1
     5    49    46    1
     6    47    46   ar
     7    47    42   ar
     8    50    42    1
     9    50    53    1
    10    46    45   ar
    11    42    43   ar
    12    45    54    1
    13    45    44   ar
    14    43    31    1
    15    43    44   ar
    16    41    40    1
    17    40    39    1
    18    31    34   ar
    19    31    29   ar
    20    39    34    1
    21    39    51    1
    22    44    48    1
    23    32    29    1
    24    34    33   ar
    25    29    28   ar
    26    33    35    1
    27    33    30   ar
    28    28    36    1
    29    28    30   ar
    30    19    18    1
    31    30    17    1
    32    18    17   ar
    33    18    14   ar
    34    17    16   ar
    35    13    12    1
    36    12     7    1
    37     7     6    1
    38     7     4    2
    39    14     4    1
    40    14    15   ar
    41     6     8    1
    42     6     3    1
    43     1     3    2
    44     1    11    1
    45     3     9    1
    46     5    21    1
    47    11    10    3
    48    16    15   ar
    49    16    25    1
    50    15    20    1
    51    25    26    3
    52    26    27    1
    53    21    22    1
    54    21    23    1
