@<TRIPOS>MOLECULE
mol_data/noopt/geoms/mol2/4df12ih(210)12id(200)13eh(40).out
 49 52 0 0 0
SMALL
GASTEIGER

@<TRIPOS>ATOM
      1 C           0.0509    0.0309    0.0002 C.ar    1  LIG1        0.0527
      2 C           1.4592    0.0309    0.0002 C.ar    1  LIG1       -0.0302
      3 C          -0.6045    1.2792    0.0002 C.ar    1  LIG1       -0.0409
      4 C           2.1849    1.2200   -0.0004 C.ar    1  LIG1        0.0602
      5 H           1.9850   -0.9213    0.0004 H       1  LIG1        0.0639
      6 C           0.1195    2.4666   -0.0004 C.ar    1  LIG1       -0.0183
      7 C           1.5181    2.4458   -0.0008 C.ar    1  LIG1        0.1276
      8 H          -0.4090    3.4165   -0.0003 H       1  LIG1        0.0655
      9 H          -1.9035    1.3287    0.0016 H       1  LIG1        0.0631
     10 N          -1.1192   -2.1177    0.0008 N.1     1  LIG1       -0.1909
     11 C          -0.5708   -1.1108    0.0005 C.1     1  LIG1        0.0992
     12 O           2.1896    3.5590   -0.0012 O.3     1  LIG1       -0.5061
     13 H           1.5802    4.3008   -0.0013 H       1  LIG1        0.2922
     14 C           3.4844    1.1831   -0.0005 C.ar    1  LIG1        0.1441
     15 C           4.4918    2.0182   -0.4372 C.ar    1  LIG1        0.0168
     16 C           5.7423    1.3594   -0.1222 C.ar    1  LIG1        0.0776
     17 C           5.4159    0.1650    0.4864 C.ar    1  LIG1        0.1916
     18 O           4.0295    0.0335    0.5730 O.2     1  LIG1       -0.4494
     19 C           4.3707    3.1743   -1.0200 C.3     1  LIG1       -0.0343
     20 H           3.4450    3.6252   -0.7289 H       1  LIG1        0.0279
     21 H           4.3845    3.0417   -2.0817 H       1  LIG1        0.0279
     22 H           5.1829    3.8072   -0.7289 H       1  LIG1        0.0279
     23 N           6.9291    1.8259   -0.3752 N.pl3   1  LIG1       -0.3547
     24 H           7.4467    1.1521   -0.9024 H       1  LIG1        0.1424
     25 H           6.8494    2.6719   -0.9025 H       1  LIG1        0.1424
     26 C           6.0830   -0.8346    0.9821 C.ar    1  LIG1        0.1767
     27 C           7.4165   -1.1724    1.0854 C.ar    1  LIG1        0.0165
     28 C           7.4693   -2.4499    1.7652 C.ar    1  LIG1        0.1025
     29 C           6.1640   -2.8081    2.0324 C.ar    1  LIG1        0.1707
     30 O           5.2908   -1.8281    1.5593 O.2     1  LIG1       -0.4486
     31 C           8.4438   -0.4957    0.6641 C.3     1  LIG1       -0.0348
     32 H           8.3816    0.5094    1.0258 H       1  LIG1        0.0279
     33 H           8.4526   -0.4898   -0.4059 H       1  LIG1        0.0279
     34 H           9.3427   -0.9499    1.0257 H       1  LIG1        0.0279
     35 N           9.5056   -3.6915    2.3110 N.1     1  LIG1       -0.1907
     36 C           8.5513   -3.1096    2.0552 C.1     1  LIG1        0.1033
     37 C           5.5795   -3.8178    2.6060 C.ar    1  LIG1        0.1008
     38 C           4.6137   -3.8511    3.5621 C.ar    1  LIG1        0.0736
     39 C           4.3309   -5.2278    3.8365 C.ar    1  LIG1        0.0584
     40 C           5.1350   -5.9752    3.0348 C.ar    1  LIG1        0.0243
     41 N           5.9014   -5.1159    2.2801 N.ar    1  LIG1       -0.3556
     42 H           6.5792   -5.3895    1.6064 H       1  LIG1        0.1655
     43 H           5.2461   -7.2652    2.9184 H       1  LIG1        0.0826
     44 C           4.0535   -2.8207    4.1228 C.1     1  LIG1       -0.0656
     45 C           3.5359   -1.8686    4.6410 C.1     1  LIG1       -0.1138
     46 H           3.0748   -1.0205    5.1025 H       1  LIG1        0.1232
     47 N           3.4653   -5.6828    4.6931 N.pl3   1  LIG1       -0.3559
     48 H           2.5885   -5.2213    4.5581 H       1  LIG1        0.1424
     49 H           3.3483   -6.6667    4.5581 H       1  LIG1        0.1424
@<TRIPOS>BOND
     1    21    19    1
     2    19    22    1
     3    19    20    1
     4    19    15    1
     5    25    23    1
     6    24    23    1
     7    15    16   ar
     8    15    14   ar
     9    33    31    1
    10    23    16    1
    11    16    17   ar
    12    13    12    1
    13    12     7    1
    14     7     6   ar
    15     7     4   ar
    16    14     4    1
    17    14    18   ar
    18     6     8    1
    19     6     3   ar
    20     4     2   ar
    21     1     3   ar
    22     1     2   ar
    23     1    11    1
    24     3     9    1
    25     2     5    1
    26    11    10    3
    27    17    18   ar
    28    17    26    1
    29    31    34    1
    30    31    32    1
    31    31    27    1
    32    26    27   ar
    33    26    30   ar
    34    27    28   ar
    35    30    29   ar
    36    42    41    1
    37    28    29   ar
    38    28    36    1
    39    29    37    1
    40    36    35    3
    41    41    37   ar
    42    41    40   ar
    43    37    38   ar
    44    43    40    1
    45    40    39   ar
    46    38    39   ar
    47    38    44    1
    48    39    47    1
    49    44    45    3
    50    49    47    1
    51    48    47    1
    52    45    46    1
