@<TRIPOS>MOLECULE
mol_data/noopt/geoms/mol2/4df12he4dd4eh-4eh-12hf-6hi6hh.out
 102 110 0 0 0
SMALL
GASTEIGER

@<TRIPOS>ATOM
      1 C           0.0509    0.0309    0.0002 C.ar    1  LIG1        0.0527
      2 C           1.4592    0.0309    0.0002 C.ar    1  LIG1       -0.0301
      3 C          -0.6045    1.2792    0.0002 C.ar    1  LIG1       -0.0409
      4 C           2.1849    1.2200   -0.0004 C.ar    1  LIG1        0.0612
      5 H           1.9850   -0.9213    0.0004 H       1  LIG1        0.0639
      6 C           0.1195    2.4666   -0.0004 C.ar    1  LIG1       -0.0183
      7 C           1.5181    2.4458   -0.0008 C.ar    1  LIG1        0.1276
      8 H          -0.4090    3.4165   -0.0003 H       1  LIG1        0.0655
      9 H          -1.9035    1.3287    0.0016 H       1  LIG1        0.0631
     10 N          -1.1192   -2.1177    0.0008 N.1     1  LIG1       -0.1909
     11 C          -0.5708   -1.1108    0.0005 C.1     1  LIG1        0.0992
     12 O           2.1896    3.5590   -0.0012 O.3     1  LIG1       -0.5061
     13 H           1.5802    4.3008   -0.0013 H       1  LIG1        0.2922
     14 C           3.4844    1.1831   -0.0005 C.2     1  LIG1        0.1547
     15 C           4.4399    0.1881   -0.0006 C.2     1  LIG1        0.0829
     16 C           5.7279    0.8499   -0.0007 C.2     1  LIG1        0.0723
     17 C           5.4738    2.2061   -0.0008 C.3     1  LIG1        0.2179
     18 O           4.0977    2.4367   -0.0007 O.2     1  LIG1       -0.4683
     19 N           4.2495   -1.0979   -0.0005 N.pl3   1  LIG1       -0.3543
     20 H           3.3930   -1.3081   -0.4718 H       1  LIG1        0.1425
     21 H           5.0083   -1.5472   -0.4719 H       1  LIG1        0.1425
     22 C           6.8846    0.2566   -0.0008 C.1     1  LIG1       -0.0932
     23 C           7.9534   -0.2917   -0.0008 C.2     1  LIG1        0.0549
     24 H           8.9054   -0.7801   -0.0009 H       1  LIG1        0.0888
     25 C           7.6062    3.1844   -0.0001 C.ar    1  LIG1       -0.0092
     26 C           8.3476    4.3817    0.0014 C.ar    1  LIG1       -0.0469
     27 C           6.1998    3.2844   -0.0008 C.ar    1  LIG1        0.0122
     28 C           7.7188    5.6247    0.0015 C.ar    1  LIG1        0.0011
     29 H           9.4340    4.3274    0.0022 H       1  LIG1        0.0628
     30 C           5.5715    4.5251   -0.0007 C.ar    1  LIG1       -0.0360
     31 C           6.3255    5.7032    0.0003 C.ar    1  LIG1        0.0599
     32 H           4.4857    4.5759   -0.0012 H       1  LIG1        0.0635
     33 N           8.8169    1.0583   -0.0006 N.pl3   1  LIG1       -0.2336
     34 C           8.2495    2.0547   -0.0004 C.3     1  LIG1        0.1377
     35 N           5.2098    7.8806    0.0008 N.1     1  LIG1       -0.1909
     36 C           5.7327    6.8601    0.0006 C.1     1  LIG1        0.0998
     37 C           9.8413    6.6237    0.0255 C.ar    1  LIG1        0.0331
     38 C          10.5711    7.8282    0.0274 C.ar    1  LIG1       -0.0362
     39 C           8.4343    6.7100    0.0027 C.ar    1  LIG1        0.0005
     40 C           9.9304    9.0650    0.0070 C.ar    1  LIG1        0.0052
     41 H          11.6578    7.7845    0.0450 H       1  LIG1        0.0637
     42 C           7.7941    7.9445   -0.0177 C.ar    1  LIG1       -0.0315
     43 C           8.5367    9.1298   -0.0158 C.ar    1  LIG1        0.0330
     44 H           6.7080    7.9847   -0.0349 H       1  LIG1        0.0643
     45 C          10.4954    5.5004    0.0449 C.1     1  LIG1       -0.0690
     46 C          11.0998    4.4625    0.0629 C.1     1  LIG1       -0.1139
     47 H          11.6381    3.5379    0.0789 H       1  LIG1        0.1232
     48 N           7.9327   10.2809   -0.0348 N.pl3   1  LIG1       -0.3575
     49 H           8.5041   10.9493   -0.5110 H       1  LIG1        0.1423
     50 H           7.0581   10.1907   -0.5110 H       1  LIG1        0.1423
     51 C          12.0431   10.0846    0.0327 C.ar    1  LIG1        0.0332
     52 C          12.7612   11.2961    0.0358 C.ar    1  LIG1       -0.0332
     53 C          10.6353   10.1572    0.0093 C.ar    1  LIG1        0.0011
     54 C          12.1085   12.5266    0.0159 C.ar    1  LIG1        0.0410
     55 H          13.8483   11.2629    0.0538 H       1  LIG1        0.0638
     56 C           9.9832   11.3854   -0.0105 C.ar    1  LIG1       -0.0314
     57 C          10.7142   12.5779   -0.0075 C.ar    1  LIG1        0.0360
     58 H           8.8967   11.4150   -0.0283 H       1  LIG1        0.0643
     59 C          12.7081    8.9677    0.0516 C.1     1  LIG1       -0.0690
     60 C          13.3225    7.9356    0.0692 C.1     1  LIG1       -0.1139
     61 H          13.8698    7.0163    0.0848 H       1  LIG1        0.1232
     62 N          10.0991   13.7231   -0.0259 N.pl3   1  LIG1       -0.3574
     63 H          10.6639   14.3971   -0.5020 H       1  LIG1        0.1423
     64 H           9.2253   13.6245   -0.5021 H       1  LIG1        0.1423
     65 C          12.8028   13.6256    0.0193 C.ar    1  LIG1        0.1617
     66 C          14.1459   13.9403    0.0219 C.ar    1  LIG1        0.1138
     67 C          14.2333   15.3857    0.0252 C.ar    1  LIG1        0.1846
     68 C          12.9372   15.8586    0.0243 C.ar    1  LIG1        0.1821
     69 O          12.0371   14.7924    0.0206 O.2     1  LIG1       -0.4490
     70 N          15.1551   13.1208    0.0216 N.pl3   1  LIG1       -0.3522
     71 H          14.8991   12.2769   -0.4499 H       1  LIG1        0.1425
     72 H          15.9285   13.5446   -0.4500 H       1  LIG1        0.1425
     73 O          15.3335   16.0783    0.0283 O.3     1  LIG1       -0.5020
     74 H          15.1226   17.0148    0.0290 H       1  LIG1        0.2924
     75 C          10.9781   17.1549    0.0273 C.ar    1  LIG1        0.1277
     76 C          12.3797   17.0330    0.0262 C.ar    1  LIG1        0.0607
     77 C          13.1501   18.1973    0.0273 C.ar    1  LIG1       -0.0427
     78 C          12.5006   19.4329    0.0294 C.ar    1  LIG1       -0.0236
     79 C          11.0937   19.4520    0.0302 C.ar    1  LIG1        0.0793
     80 N          10.3350   18.3386    0.0293 N.ar    1  LIG1       -0.2313
     81 H          14.2479   18.1417    0.0255 H       1  LIG1        0.0629
     82 N          10.2182   16.1000    0.0264 N.pl3   1  LIG1       -0.3426
     83 H           9.3611   16.3071   -0.4453 H       1  LIG1        0.1437
     84 H          10.6861   15.3526   -0.4453 H       1  LIG1        0.1437
     85 C          13.1730   20.5458    0.0304 C.3     1  LIG1       -0.0377
     86 H          12.6095   21.3026    0.5351 H       1  LIG1        0.0278
     87 H          13.3578   20.8518   -0.9782 H       1  LIG1        0.0278
     88 H          14.1050   20.3989    0.5350 H       1  LIG1        0.0278
     89 C           9.0366   20.5862    0.0335 C.ar    1  LIG1        0.1255
     90 C          10.4435   20.5777    0.0322 C.ar    1  LIG1        0.0419
     91 C          11.1176   21.8002    0.0335 C.ar    1  LIG1       -0.0271
     92 C          10.3707   22.9795    0.0358 C.ar    1  LIG1        0.0437
     93 C           8.9669   22.8852    0.0367 C.ar    1  LIG1        0.0503
     94 N           8.3002   21.7143    0.0357 N.ar    1  LIG1       -0.2382
     95 H          12.2163   21.8332    0.0316 H       1  LIG1        0.0644
     96 H           8.2280   23.9548    0.0389 H       1  LIG1        0.0849
     97 N           8.3642   19.4736    0.0325 N.pl3   1  LIG1       -0.3426
     98 H           7.4932   19.6109   -0.4392 H       1  LIG1        0.1437
     99 H           8.8908   18.7663   -0.4392 H       1  LIG1        0.1437
    100 N          10.9511   24.1427    0.0369 N.pl3   1  LIG1       -0.3568
    101 H          11.8307   24.0767   -0.4343 H       1  LIG1        0.1424
    102 H          10.3696   24.8058   -0.4343 H       1  LIG1        0.1424
@<TRIPOS>BOND
     1    87    85    1
     2    50    48    1
     3    49    48    1
     4    64    62    1
     5    63    62    1
     6    21    19    1
     7    20    19    1
     8    72    70    1
     9    71    70    1
    10    84    82    1
    11    83    82    1
    12    99    97    1
    13    98    97    1
    14   102   100    1
    15   101   100    1
    16    44    42    1
    17    48    43    1
    18    58    56    1
    19    62    57    1
    20    42    43   ar
    21    42    39   ar
    22    43    40   ar
    23    56    57   ar
    24    56    53   ar
    25    57    54   ar
    26    13    12    1
    27    12     7    1
    28    32    30    1
    29    24    23    1
    30    23    22    2
    31    23    33    1
    32    27    17    1
    33    27    30   ar
    34    27    25   ar
    35     7     6   ar
    36     7     4   ar
    37    22    16    2
    38    17    18    1
    39    17    16    1
    40    18    14    1
    41    30    31   ar
    42    16    15    1
    43    33    34    1
    44    15    14    2
    45    15    19    1
    46    14     4    1
    47     6     8    1
    48     6     3   ar
    49     4     2   ar
    50    34    25    1
    51    25    26   ar
    52     1     2   ar
    53     1     3   ar
    54     1    11    1
    55     2     5    1
    56     3     9    1
    57    31    36    1
    58    31    28   ar
    59    11    10    3
    60    36    35    3
    61    26    28   ar
    62    26    29    1
    63    28    39    1
    64    39    37   ar
    65    40    53    1
    66    40    38   ar
    67    53    51   ar
    68    54    65    1
    69    54    52   ar
    70    65    69   ar
    71    65    66   ar
    72    69    68   ar
    73    70    66    1
    74    66    67   ar
    75    68    67   ar
    76    68    76    1
    77    67    73    1
    78    81    77    1
    79    37    38   ar
    80    37    45    1
    81    76    75   ar
    82    76    77   ar
    83    82    75    1
    84    75    80   ar
    85    77    78   ar
    86    38    41    1
    87    73    74    1
    88    80    79   ar
    89    78    79   ar
    90    78    85    1
    91    79    90    1
    92    85    88    1
    93    85    86    1
    94    95    91    1
    95    90    89   ar
    96    90    91   ar
    97    97    89    1
    98    51    52   ar
    99    51    59    1
   100    89    94   ar
   101    91    92   ar
   102    94    93   ar
   103    52    55    1
   104    92    93   ar
   105    92   100    1
   106    93    96    1
   107    45    46    3
   108    59    60    3
   109    46    47    1
   110    60    61    1
