@<TRIPOS>MOLECULE
mol_data/noopt/geoms/mol2/4df4ea(210)6hf(280)12hd(160).out
 48 51 0 0 0
SMALL
GASTEIGER

@<TRIPOS>ATOM
      1 C           0.0509    0.0309    0.0002 C.ar    1  LIG1        0.0526
      2 C           1.4592    0.0309    0.0002 C.ar    1  LIG1       -0.0331
      3 C          -0.6045    1.2792    0.0002 C.ar    1  LIG1       -0.0409
      4 C           2.1849    1.2200   -0.0004 C.ar    1  LIG1        0.0259
      5 H           1.9850   -0.9213    0.0004 H       1  LIG1        0.0638
      6 C           0.1195    2.4666   -0.0004 C.ar    1  LIG1       -0.0184
      7 C           1.5181    2.4458   -0.0008 C.ar    1  LIG1        0.1246
      8 H          -0.4090    3.4165   -0.0003 H       1  LIG1        0.0655
      9 H          -1.9035    1.3287    0.0016 H       1  LIG1        0.0631
     10 N          -1.1192   -2.1177    0.0008 N.1     1  LIG1       -0.1909
     11 C          -0.5708   -1.1108    0.0005 C.1     1  LIG1        0.0992
     12 O           2.1896    3.5590   -0.0012 O.3     1  LIG1       -0.5062
     13 H           1.5802    4.3008   -0.0013 H       1  LIG1        0.2922
     14 C           4.2165    2.2210   -0.6124 C.ar    1  LIG1        0.0331
     15 C           5.6219    2.1339   -0.5870 C.ar    1  LIG1       -0.0379
     16 C           3.4843    1.1831   -0.0005 C.ar    1  LIG1        0.0011
     17 C           6.2716    1.0620    0.0207 C.ar    1  LIG1       -0.0133
     18 H           6.2062    2.9240   -1.0535 H       1  LIG1        0.0636
     19 C           4.1325    0.1127    0.6063 C.ar    1  LIG1       -0.0522
     20 C           5.5295    0.0444    0.6215 C.ar    1  LIG1       -0.0533
     21 H           3.5457   -0.6753    1.0713 H       1  LIG1        0.0624
     22 C           3.6675    3.2457   -1.1943 C.1     1  LIG1       -0.0690
     23 C           3.1602    4.1925   -1.7320 C.1     1  LIG1       -0.1139
     24 H           2.7083    5.0359   -2.2109 H       1  LIG1        0.1232
     25 H           6.1299   -0.9587    1.1902 H       1  LIG1        0.0624
     26 C           8.2845    1.1978    1.2241 C.ar    1  LIG1        0.1250
     27 C           7.5707    1.0135    0.0258 C.ar    1  LIG1        0.0252
     28 C           8.2884    0.7787   -1.1484 C.ar    1  LIG1       -0.0069
     29 C           9.6824    0.7365   -1.0869 C.ar    1  LIG1        0.1465
     30 C          10.3058    0.9329    0.1590 C.ar    1  LIG1        0.1511
     31 N           9.6289    1.1603    1.3016 N.ar    1  LIG1       -0.2250
     32 H           7.7653    0.6310   -2.1038 H       1  LIG1        0.0662
     33 N           7.6609    1.4192    2.3430 N.pl3   1  LIG1       -0.3426
     34 H           7.3917    2.3812    2.3900 H       1  LIG1        0.1437
     35 H           6.8455    0.8423    2.3900 H       1  LIG1        0.1437
     36 O          10.3959    0.5213   -2.1521 O.3     1  LIG1       -0.5045
     37 H          10.8330    1.3346   -2.4146 H       1  LIG1        0.2922
     38 C          11.6009    0.9026    0.2672 C.ar    1  LIG1        0.1784
     39 C          12.5777    1.8017    0.6420 C.ar    1  LIG1        0.0902
     40 C          13.8438    1.1068    0.5362 C.ar    1  LIG1        0.1107
     41 C          13.5565   -0.1715    0.1038 C.ar    1  LIG1        0.1119
     42 O          12.1801   -0.3218   -0.0691 O.2     1  LIG1       -0.4580
     43 H          14.2523   -1.2347   -0.1709 H       1  LIG1        0.1043
     44 N          12.4207    3.0356    1.0199 N.pl3   1  LIG1       -0.3540
     45 H          13.1730    3.5911    0.6657 H       1  LIG1        0.1425
     46 H          11.5531    3.3849    0.6657 H       1  LIG1        0.1425
     47 N          16.0401    2.0603    1.0392 N.1     1  LIG1       -0.1907
     48 C          15.0108    1.6135    0.8035 C.1     1  LIG1        0.1042
@<TRIPOS>BOND
     1    37    36    1
     2    24    23    1
     3    36    29    1
     4    32    28    1
     5    23    22    3
     6    22    14    1
     7    28    29   ar
     8    28    27   ar
     9    29    30   ar
    10    18    15    1
    11    14    15   ar
    12    14    16   ar
    13    15    17   ar
    14    43    41    1
    15    42    41   ar
    16    42    38   ar
    17    13    12    1
    18    12     7    1
    19     7     6   ar
    20     7     4   ar
    21    16     4    1
    22    16    19   ar
    23     6     8    1
    24     6     3   ar
    25     4     2   ar
    26     1     3   ar
    27     1     2   ar
    28     1    11    1
    29     3     9    1
    30     2     5    1
    31    11    10    3
    32    17    27    1
    33    17    20   ar
    34    27    26   ar
    35    41    40   ar
    36    30    38    1
    37    30    31   ar
    38    38    39   ar
    39    40    39   ar
    40    40    48    1
    41    19    20   ar
    42    19    21    1
    43    20    25    1
    44    39    44    1
    45    46    44    1
    46    45    44    1
    47    48    47    3
    48    26    31   ar
    49    26    33    1
    50    33    34    1
    51    33    35    1
