@<TRIPOS>MOLECULE
mol_data/noopt/geoms/mol2/4df4ah(90)4ea12he(40).out
 49 52 0 0 0
SMALL
GASTEIGER

@<TRIPOS>ATOM
      1 C           0.0509    0.0309    0.0002 C.ar    1  LIG1        0.0526
      2 C           1.4592    0.0309    0.0002 C.ar    1  LIG1       -0.0331
      3 C          -0.6045    1.2792    0.0002 C.ar    1  LIG1       -0.0409
      4 C           2.1849    1.2200   -0.0004 C.ar    1  LIG1        0.0248
      5 H           1.9850   -0.9213    0.0004 H       1  LIG1        0.0638
      6 C           0.1195    2.4666   -0.0004 C.ar    1  LIG1       -0.0184
      7 C           1.5181    2.4458   -0.0008 C.ar    1  LIG1        0.1246
      8 H          -0.4090    3.4165   -0.0003 H       1  LIG1        0.0655
      9 H          -1.9035    1.3287    0.0016 H       1  LIG1        0.0631
     10 N          -1.1192   -2.1177    0.0008 N.1     1  LIG1       -0.1909
     11 C          -0.5708   -1.1108    0.0005 C.1     1  LIG1        0.0992
     12 O           2.1896    3.5590   -0.0012 O.3     1  LIG1       -0.5062
     13 H           1.5802    4.3008   -0.0013 H       1  LIG1        0.2922
     14 C           4.1866    1.1639    1.2219 C.ar    1  LIG1       -0.0532
     15 C           5.5934    1.1255    1.1682 C.ar    1  LIG1       -0.0517
     16 C           3.4843    1.1831   -0.0005 C.ar    1  LIG1       -0.0126
     17 C           6.2729    1.1063   -0.0478 C.ar    1  LIG1        0.0040
     18 H           6.1549    1.1103    2.0996 H       1  LIG1        0.0624
     19 C           4.1622    1.1640   -1.2147 C.ar    1  LIG1       -0.0326
     20 C           5.5601    1.1254   -1.2472 C.ar    1  LIG1        0.0330
     21 H           3.5981    1.1795   -2.1437 H       1  LIG1        0.0642
     22 H           3.6091    1.1800    2.3865 H       1  LIG1        0.0624
     23 N           6.1883    1.1079   -2.3852 N.pl3   1  LIG1       -0.3575
     24 H           5.9141    0.2987   -2.9049 H       1  LIG1        0.1423
     25 H           5.9597    1.9310   -2.9049 H       1  LIG1        0.1423
     26 C           8.2410   -0.1705   -0.0666 C.ar    1  LIG1        0.0331
     27 C           9.6491   -0.1554   -0.0788 C.ar    1  LIG1       -0.0350
     28 C           7.5723    1.0707   -0.0605 C.ar    1  LIG1       -0.0007
     29 C          10.3620    1.0414   -0.0854 C.ar    1  LIG1        0.0203
     30 H          10.1851   -1.1019   -0.0835 H       1  LIG1        0.0637
     31 C           8.2835    2.2658   -0.0670 C.ar    1  LIG1       -0.0521
     32 C           9.6822    2.2600   -0.0795 C.ar    1  LIG1       -0.0504
     33 H           7.7449    3.2100   -0.0620 H       1  LIG1        0.0624
     34 C           7.6315   -1.3188   -0.0613 C.1     1  LIG1       -0.0690
     35 C           7.0684   -2.3798   -0.0563 C.1     1  LIG1       -0.1139
     36 H           6.5667   -3.3249   -0.0520 H       1  LIG1        0.1232
     37 H          10.3417    3.3803   -0.0854 H       1  LIG1        0.0625
     38 C          11.6618    1.0184   -0.0968 C.ar    1  LIG1        0.1566
     39 C          12.6362    0.2215    0.4676 C.ar    1  LIG1        0.0865
     40 C          13.9110    0.7615    0.0430 C.ar    1  LIG1        0.0836
     41 C          13.6308    1.8531   -0.7531 C.ar    1  LIG1        0.1098
     42 O          12.2507    2.0317   -0.8544 O.2     1  LIG1       -0.4598
     43 H          14.3357    2.7259   -1.4098 H       1  LIG1        0.1043
     44 N          12.4708   -0.8158    1.2335 N.pl3   1  LIG1       -0.3541
     45 H          11.5783   -1.2274    1.0490 H       1  LIG1        0.1425
     46 H          13.1908   -1.4847    1.0490 H       1  LIG1        0.1425
     47 C          15.0787    0.2894    0.3645 C.1     1  LIG1       -0.0646
     48 C          16.1578   -0.1469    0.6616 C.1     1  LIG1       -0.1138
     49 H          17.1189   -0.5356    0.9263 H       1  LIG1        0.1232
@<TRIPOS>BOND
     1    25    23    1
     2    24    23    1
     3    23    20    1
     4    21    19    1
     5    43    41    1
     6    20    19   ar
     7    20    17   ar
     8    19    16   ar
     9    42    41   ar
    10    42    38   ar
    11    41    40   ar
    12    38    29    1
    13    38    39   ar
    14    37    32    1
    15    29    32   ar
    16    29    27   ar
    17    30    27    1
    18    32    31   ar
    19    27    26   ar
    20    31    33    1
    21    31    28   ar
    22    26    34    1
    23    26    28   ar
    24    34    35    3
    25    28    17    1
    26    35    36    1
    27    17    15   ar
    28    13    12    1
    29    12     7    1
    30     7     6   ar
    31     7     4   ar
    32    16     4    1
    33    16    14   ar
    34     6     8    1
    35     6     3   ar
    36     4     2   ar
    37     1     2   ar
    38     1     3   ar
    39     1    11    1
    40     2     5    1
    41     3     9    1
    42    11    10    3
    43    40    47    1
    44    40    39   ar
    45    47    48    3
    46    39    44    1
    47    48    49    1
    48    46    44    1
    49    45    44    1
    50    15    14   ar
    51    15    18    1
    52    14    22    1
