@<TRIPOS>MOLECULE
mol_data/noopt/geoms/mol2/4dg4dg-4dg-.out
 38 40 0 0 0
SMALL
GASTEIGER

@<TRIPOS>ATOM
      1 C           0.0509    0.0309    0.0002 C.ar    1  LIG1        0.0524
      2 C           1.4592    0.0309    0.0002 C.ar    1  LIG1       -0.0355
      3 C          -0.6045    1.2792    0.0002 C.ar    1  LIG1       -0.0433
      4 C           2.1849    1.2200   -0.0004 C.ar    1  LIG1       -0.0022
      5 H           1.9850   -0.9213    0.0004 H       1  LIG1        0.0637
      6 C           0.1195    2.4666   -0.0004 C.ar    1  LIG1       -0.0468
      7 C           1.5181    2.4458   -0.0008 C.ar    1  LIG1        0.0126
      8 H          -0.4090    3.4165   -0.0003 H       1  LIG1        0.0629
      9 H          -1.9035    1.3287    0.0016 H       1  LIG1        0.0631
     10 N          -1.1192   -2.1177    0.0008 N.1     1  LIG1       -0.1909
     11 C          -0.5708   -1.1108    0.0005 C.1     1  LIG1        0.0992
     12 S           2.1896    3.5589   -0.0012 S.3     1  LIG1       -0.1420
     13 H           1.3580    4.5712   -0.0013 H       1  LIG1        0.1071
     14 C           4.1518   -0.0586    0.0215 C.ar    1  LIG1        0.0601
     15 C           5.5600   -0.0449    0.0220 C.ar    1  LIG1       -0.0350
     16 C           3.4843    1.1831   -0.0005 C.ar    1  LIG1        0.0016
     17 C           6.2742    1.1510    0.0009 C.ar    1  LIG1       -0.0022
     18 H           6.0951   -0.9918    0.0390 H       1  LIG1        0.0637
     19 C           4.1968    2.3773   -0.0216 C.ar    1  LIG1       -0.0390
     20 C           5.5955    2.3701   -0.0212 C.ar    1  LIG1        0.0131
     21 H           3.6591    3.3219   -0.0383 H       1  LIG1        0.0635
     22 N           3.0026   -2.2182    0.0593 N.1     1  LIG1       -0.1908
     23 C           3.5412   -1.2061    0.0416 C.1     1  LIG1        0.0998
     24 S           6.2561    3.4895   -0.0408 S.3     1  LIG1       -0.1420
     25 H           5.4148    4.4936   -0.0474 H       1  LIG1        0.1071
     26 C           8.2534   -0.1084    0.0245 C.ar    1  LIG1        0.0596
     27 C           9.6614   -0.0811    0.0261 C.ar    1  LIG1       -0.0427
     28 C           7.5739    1.1267    0.0018 C.ar    1  LIG1        0.0016
     29 C          10.3639    1.1217    0.0055 C.ar    1  LIG1       -0.0473
     30 H          10.2056   -1.0227    0.0436 H       1  LIG1        0.0631
     31 C           8.2747    2.3278   -0.0187 C.ar    1  LIG1       -0.0396
     32 C           9.6734    2.3341   -0.0171 C.ar    1  LIG1        0.0054
     33 H           7.7279    3.2671   -0.0358 H       1  LIG1        0.0635
     34 H          11.6639    1.1101    0.0076 H       1  LIG1        0.0629
     35 N           7.1252   -2.2790    0.0613 N.1     1  LIG1       -0.1909
     36 C           7.6539   -1.2618    0.0440 C.1     1  LIG1        0.0998
     37 S          10.3232    3.4599   -0.0362 S.3     1  LIG1       -0.1426
     38 H           9.4722    4.4559   -0.0426 H       1  LIG1        0.1071
@<TRIPOS>BOND
     1    25    24    1
     2    38    37    1
     3    24    20    1
     4    21    19    1
     5    37    32    1
     6    33    31    1
     7    19    20   ar
     8    19    16   ar
     9    20    17   ar
    10    31    32   ar
    11    31    28   ar
    12    32    29   ar
    13    13    12    1
    14    12     7    1
    15     7     4   ar
    16     7     6   ar
    17    16     4    1
    18    16    14   ar
    19     4     2   ar
    20     6     8    1
    21     6     3   ar
    22     2     1   ar
    23     2     5    1
    24     3     1   ar
    25     3     9    1
    26     1    11    1
    27    11    10    3
    28    17    28    1
    29    17    15   ar
    30    28    26   ar
    31    29    34    1
    32    29    27   ar
    33    14    15   ar
    34    14    23    1
    35    15    18    1
    36    26    27   ar
    37    26    36    1
    38    27    30    1
    39    23    22    3
    40    36    35    3
