@<TRIPOS>MOLECULE
mol_data/noopt/geoms/mol2/4dg4dg4dg-4dg.out
 50 53 0 0 0
SMALL
GASTEIGER

@<TRIPOS>ATOM
      1 C           0.0509    0.0309    0.0002 C.ar    1  LIG1        0.0524
      2 C           1.4592    0.0309    0.0002 C.ar    1  LIG1       -0.0355
      3 C          -0.6045    1.2792    0.0002 C.ar    1  LIG1       -0.0433
      4 C           2.1849    1.2200   -0.0004 C.ar    1  LIG1       -0.0022
      5 H           1.9850   -0.9213    0.0004 H       1  LIG1        0.0637
      6 C           0.1195    2.4666   -0.0004 C.ar    1  LIG1       -0.0468
      7 C           1.5181    2.4458   -0.0008 C.ar    1  LIG1        0.0126
      8 H          -0.4090    3.4165   -0.0003 H       1  LIG1        0.0629
      9 H          -1.9035    1.3287    0.0016 H       1  LIG1        0.0631
     10 N          -1.1192   -2.1177    0.0008 N.1     1  LIG1       -0.1909
     11 C          -0.5708   -1.1108    0.0005 C.1     1  LIG1        0.0992
     12 S           2.1896    3.5589   -0.0012 S.3     1  LIG1       -0.1420
     13 H           1.3580    4.5712   -0.0013 H       1  LIG1        0.1071
     14 C           4.1518   -0.0588    0.0002 C.ar    1  LIG1        0.0601
     15 C           5.5600   -0.0451    0.0016 C.ar    1  LIG1       -0.0350
     16 C           3.4843    1.1831   -0.0005 C.ar    1  LIG1        0.0016
     17 C           6.2742    1.1510    0.0017 C.ar    1  LIG1       -0.0022
     18 H           6.0950   -0.9922    0.0024 H       1  LIG1        0.0637
     19 C           4.1968    2.3775   -0.0004 C.ar    1  LIG1       -0.0390
     20 C           5.5955    2.3702    0.0006 C.ar    1  LIG1        0.0131
     21 H           3.6591    3.3222   -0.0009 H       1  LIG1        0.0635
     22 N           3.0026   -2.2187   -0.0003 N.1     1  LIG1       -0.1908
     23 C           3.5412   -1.2064   -0.0001 C.1     1  LIG1        0.0998
     24 S           6.2561    3.4898    0.0008 S.3     1  LIG1       -0.1420
     25 H           5.4148    4.4939    0.0009 H       1  LIG1        0.1071
     26 C           8.2534   -0.1085    0.0256 C.ar    1  LIG1        0.0601
     27 C           9.6614   -0.0811    0.0275 C.ar    1  LIG1       -0.0350
     28 C           7.5739    1.1267    0.0029 C.ar    1  LIG1        0.0016
     29 C          10.3639    1.1216    0.0070 C.ar    1  LIG1       -0.0022
     30 H          10.2055   -1.0228    0.0451 H       1  LIG1        0.0637
     31 C           8.2747    2.3277   -0.0175 C.ar    1  LIG1       -0.0390
     32 C           9.6735    2.3341   -0.0157 C.ar    1  LIG1        0.0131
     33 H           7.7279    3.2670   -0.0348 H       1  LIG1        0.0635
     34 N           7.1251   -2.2791    0.0623 N.1     1  LIG1       -0.1908
     35 C           7.6539   -1.2618    0.0451 C.1     1  LIG1        0.0998
     36 S          10.3232    3.4598   -0.0347 S.3     1  LIG1       -0.1420
     37 H           9.4722    4.4558   -0.0411 H       1  LIG1        0.1071
     38 C          12.3552   -0.1187    0.0113 C.ar    1  LIG1        0.0596
     39 C          13.7629   -0.0777    0.0153 C.ar    1  LIG1       -0.0427
     40 C          11.6638    1.1100    0.0093 C.ar    1  LIG1        0.0016
     41 C          14.4537    1.1320    0.0166 C.ar    1  LIG1       -0.0473
     42 H          14.3162   -1.0142    0.0171 H       1  LIG1        0.0631
     43 C          12.3529    2.3179    0.0106 C.ar    1  LIG1       -0.0396
     44 C          13.7515    2.3379    0.0142 C.ar    1  LIG1        0.0054
     45 H          11.7970    3.2520    0.0092 H       1  LIG1        0.0635
     46 H          15.7537    1.1329    0.0202 H       1  LIG1        0.0629
     47 N          11.2482   -2.3005    0.0088 N.1     1  LIG1       -0.1909
     48 C          11.7670   -1.2780    0.0100 C.1     1  LIG1        0.0998
     49 S          14.3903    3.4701    0.0156 S.3     1  LIG1       -0.1426
     50 H          13.5296    4.4577    0.0160 H       1  LIG1        0.1071
@<TRIPOS>BOND
     1    37    36    1
     2    33    31    1
     3    36    32    1
     4    31    32   ar
     5    31    28   ar
     6    32    29   ar
     7    13    12    1
     8    12     7    1
     9    21    19    1
    10     7     4   ar
    11     7     6   ar
    12    16    19   ar
    13    16     4    1
    14    16    14   ar
    15    19    20   ar
    16     4     2   ar
    17     6     8    1
    18     6     3   ar
    19    22    23    3
    20    23    14    1
    21     2     1   ar
    22     2     5    1
    23     3     1   ar
    24     3     9    1
    25     1    11    1
    26    14    15   ar
    27    11    10    3
    28    20    24    1
    29    20    17   ar
    30    24    25    1
    31    15    17   ar
    32    15    18    1
    33    17    28    1
    34    28    26   ar
    35    29    40    1
    36    29    27   ar
    37    47    48    3
    38    45    43    1
    39    40    43   ar
    40    40    38   ar
    41    48    38    1
    42    43    44   ar
    43    38    39   ar
    44    44    49    1
    45    44    41   ar
    46    39    41   ar
    47    39    42    1
    48    49    50    1
    49    41    46    1
    50    26    27   ar
    51    26    35    1
    52    27    30    1
    53    35    34    3
