@<TRIPOS>MOLECULE
mol_data/noopt/geoms/mol2/4dg4dg4dg.out
 38 40 0 0 0
SMALL
GASTEIGER

@<TRIPOS>ATOM
      1 C           0.0509    0.0309    0.0002 C.ar    1  LIG1        0.0524
      2 C           1.4592    0.0309    0.0002 C.ar    1  LIG1       -0.0355
      3 C          -0.6045    1.2792    0.0002 C.ar    1  LIG1       -0.0433
      4 C           2.1849    1.2200   -0.0004 C.ar    1  LIG1       -0.0022
      5 H           1.9850   -0.9213    0.0004 H       1  LIG1        0.0637
      6 C           0.1195    2.4666   -0.0004 C.ar    1  LIG1       -0.0468
      7 C           1.5181    2.4458   -0.0008 C.ar    1  LIG1        0.0126
      8 H          -0.4090    3.4165   -0.0003 H       1  LIG1        0.0629
      9 H          -1.9035    1.3287    0.0016 H       1  LIG1        0.0631
     10 N          -1.1192   -2.1177    0.0008 N.1     1  LIG1       -0.1909
     11 C          -0.5708   -1.1108    0.0005 C.1     1  LIG1        0.0992
     12 S           2.1896    3.5589   -0.0012 S.3     1  LIG1       -0.1420
     13 H           1.3580    4.5712   -0.0013 H       1  LIG1        0.1071
     14 C           4.1518   -0.0588    0.0002 C.ar    1  LIG1        0.0601
     15 C           5.5600   -0.0451    0.0016 C.ar    1  LIG1       -0.0350
     16 C           3.4843    1.1831   -0.0005 C.ar    1  LIG1        0.0016
     17 C           6.2742    1.1510    0.0017 C.ar    1  LIG1       -0.0022
     18 H           6.0950   -0.9922    0.0024 H       1  LIG1        0.0637
     19 C           4.1968    2.3775   -0.0004 C.ar    1  LIG1       -0.0390
     20 C           5.5955    2.3702    0.0006 C.ar    1  LIG1        0.0131
     21 H           3.6591    3.3222   -0.0009 H       1  LIG1        0.0635
     22 N           3.0026   -2.2187   -0.0003 N.1     1  LIG1       -0.1908
     23 C           3.5412   -1.2064   -0.0001 C.1     1  LIG1        0.0998
     24 S           6.2561    3.4898    0.0008 S.3     1  LIG1       -0.1420
     25 H           5.4148    4.4939    0.0009 H       1  LIG1        0.1071
     26 C           8.2534   -0.1087    0.0043 C.ar    1  LIG1        0.0596
     27 C           9.6614   -0.0814    0.0071 C.ar    1  LIG1       -0.0427
     28 C           7.5739    1.1267    0.0029 C.ar    1  LIG1        0.0016
     29 C          10.3639    1.1216    0.0079 C.ar    1  LIG1       -0.0473
     30 H          10.2056   -1.0232    0.0084 H       1  LIG1        0.0631
     31 C           8.2747    2.3279    0.0036 C.ar    1  LIG1       -0.0396
     32 C           9.6734    2.3342    0.0060 C.ar    1  LIG1        0.0054
     33 H           7.7279    3.2674    0.0026 H       1  LIG1        0.0635
     34 H          11.6639    1.1099    0.0104 H       1  LIG1        0.0629
     35 N           7.1251   -2.2796    0.0027 N.1     1  LIG1       -0.1909
     36 C           7.6539   -1.2622    0.0034 C.1     1  LIG1        0.0998
     37 S          10.3232    3.4602    0.0069 S.3     1  LIG1       -0.1426
     38 H           9.4722    4.4561    0.0072 H       1  LIG1        0.1071
@<TRIPOS>BOND
     1    13    12    1
     2    12     7    1
     3    21    19    1
     4     7     4   ar
     5     7     6   ar
     6    16    19   ar
     7    16     4    1
     8    16    14   ar
     9    19    20   ar
    10     4     2   ar
    11     6     8    1
    12     6     3   ar
    13    22    23    3
    14    23    14    1
    15     3     1   ar
    16     3     9    1
    17     1     2   ar
    18     1    11    1
    19     2     5    1
    20    14    15   ar
    21    11    10    3
    22    20    24    1
    23    20    17   ar
    24    24    25    1
    25    15    17   ar
    26    15    18    1
    27    17    28    1
    28    33    31    1
    29    35    36    3
    30    28    31   ar
    31    28    26   ar
    32    36    26    1
    33    31    32   ar
    34    26    27   ar
    35    32    37    1
    36    32    29   ar
    37    37    38    1
    38    27    29   ar
    39    27    30    1
    40    29    34    1
