@<TRIPOS>MOLECULE
mol_data/noopt/geoms/mol2/4dh12ea(310)4lh(250)12he(300).out
 51 54 0 0 0
SMALL
GASTEIGER

@<TRIPOS>ATOM
      1 C           0.0509    0.0309    0.0002 C.ar    1  LIG1        0.0526
      2 C           1.4592    0.0309    0.0002 C.ar    1  LIG1       -0.0319
      3 C          -0.6045    1.2792    0.0002 C.ar    1  LIG1       -0.0426
      4 C           2.1849    1.2200   -0.0004 C.ar    1  LIG1        0.0403
      5 H           1.9850   -0.9213    0.0004 H       1  LIG1        0.0638
      6 C           0.1195    2.4666   -0.0004 C.ar    1  LIG1       -0.0391
      7 C           1.5181    2.4458   -0.0008 C.ar    1  LIG1        0.0354
      8 H          -0.4090    3.4165   -0.0003 H       1  LIG1        0.0636
      9 H          -1.9035    1.3287    0.0016 H       1  LIG1        0.0631
     10 N          -1.1192   -2.1177    0.0008 N.1     1  LIG1       -0.1909
     11 C          -0.5708   -1.1108    0.0005 C.1     1  LIG1        0.0992
     12 N           2.1896    3.5590   -0.0012 N.pl3   1  LIG1       -0.3574
     13 H           3.0608    3.4225   -0.4727 H       1  LIG1        0.1423
     14 H           1.6626    4.2660   -0.4727 H       1  LIG1        0.1423
     15 C           3.4844    1.1831   -0.0005 C.ar    1  LIG1        0.1528
     16 C           4.4483    0.4862   -0.6992 C.ar    1  LIG1        0.0710
     17 C           5.7302    0.9329   -0.1952 C.ar    1  LIG1        0.0003
     18 C           5.4645    1.8736    0.7785 C.ar    1  LIG1        0.1405
     19 O           4.0867    2.0453    0.9168 O.2     1  LIG1       -0.4534
     20 C           4.2691   -0.4021   -1.6313 C.1     1  LIG1       -0.0658
     21 C           4.1036   -1.2228   -2.4926 C.1     1  LIG1       -0.1138
     22 H           3.9561   -1.9540   -3.2598 H       1  LIG1        0.1232
     23 H           6.8918    0.5122   -0.5999 H       1  LIG1        0.0668
     24 C           6.7559    3.8073    1.0901 C.ar    1  LIG1        0.1315
     25 C           7.5245    4.5726    1.9883 C.ar    1  LIG1       -0.0068
     26 C           6.1809    2.6135    1.5717 C.ar    1  LIG1        0.0607
     27 C           7.7131    4.1694    3.3083 C.ar    1  LIG1        0.0432
     28 H           7.9774    5.4972    1.6374 H       1  LIG1        0.0662
     29 C           6.3689    2.2104    2.8894 C.ar    1  LIG1       -0.0262
     30 C           7.1355    2.9846    3.7666 C.ar    1  LIG1        0.0363
     31 H           5.9151    1.2858    3.2369 H       1  LIG1        0.0644
     32 O           6.6155    4.2354   -0.1294 O.3     1  LIG1       -0.4944
     33 C           7.8450    4.8125   -0.5771 C.3     1  LIG1        0.0788
     34 H           7.7290    5.1645   -1.5809 H       1  LIG1        0.0660
     35 H           8.1075    5.6312    0.0599 H       1  LIG1        0.0660
     36 H           8.6182    4.0736   -0.5454 H       1  LIG1        0.0660
     37 N           7.3079    2.6028    4.9972 N.pl3   1  LIG1       -0.3574
     38 H           6.7915    1.7622    5.1608 H       1  LIG1        0.1423
     39 H           8.2798    2.4340    5.1608 H       1  LIG1        0.1423
     40 C           8.4287    4.9003    4.1106 C.ar    1  LIG1        0.1584
     41 C           9.6992    5.4371    4.0818 C.ar    1  LIG1        0.0866
     42 C           9.8714    6.1621    5.3234 C.ar    1  LIG1        0.0836
     43 C           8.6941    6.0204    6.0288 C.ar    1  LIG1        0.1098
     44 O           7.7890    5.2465    5.3016 O.2     1  LIG1       -0.4597
     45 H           8.2487    6.4297    7.1795 H       1  LIG1        0.1043
     46 N          10.5875    5.3289    3.1388 N.pl3   1  LIG1       -0.3541
     47 H          10.3771    4.5320    2.5725 H       1  LIG1        0.1425
     48 H          10.5745    6.1529    2.5725 H       1  LIG1        0.1425
     49 C          10.9394    6.8124    5.6792 C.1     1  LIG1       -0.0646
     50 C          11.9262    7.4132    6.0080 C.1     1  LIG1       -0.1138
     51 H          12.8052    7.9484    6.3008 H       1  LIG1        0.1232
@<TRIPOS>BOND
     1    22    21    1
     2    21    20    3
     3    20    16    1
     4    34    33    1
     5    16    17   ar
     6    16    15   ar
     7    23    17    1
     8    33    36    1
     9    33    32    1
    10    33    35    1
    11    14    12    1
    12    13    12    1
    13    17    18   ar
    14    32    24    1
    15    12     7    1
    16     7     6   ar
    17     7     4   ar
    18    15     4    1
    19    15    19   ar
    20     6     8    1
    21     6     3   ar
    22     4     2   ar
    23     1     3   ar
    24     1     2   ar
    25     1    11    1
    26     3     9    1
    27     2     5    1
    28    11    10    3
    29    18    19   ar
    30    18    26    1
    31    24    26   ar
    32    24    25   ar
    33    26    29   ar
    34    28    25    1
    35    25    27   ar
    36    48    46    1
    37    47    46    1
    38    29    31    1
    39    29    30   ar
    40    46    41    1
    41    27    30   ar
    42    27    40    1
    43    30    37    1
    44    41    40   ar
    45    41    42   ar
    46    40    44   ar
    47    37    38    1
    48    37    39    1
    49    44    43   ar
    50    42    49    1
    51    42    43   ar
    52    49    50    3
    53    50    51    1
    54    43    45    1
