@<TRIPOS>MOLECULE
mol_data/noopt/geoms/mol2/4dh4dh-.out
 28 30 0 0 0
SMALL
GASTEIGER

@<TRIPOS>ATOM
      1 C           0.0509    0.0309    0.0002 C.ar    1  LIG1        0.0525
      2 C           1.4592    0.0309    0.0002 C.ar    1  LIG1       -0.0348
      3 C          -0.6045    1.2792    0.0002 C.ar    1  LIG1       -0.0425
      4 C           2.1849    1.2200   -0.0004 C.ar    1  LIG1        0.0058
      5 H           1.9850   -0.9213    0.0004 H       1  LIG1        0.0637
      6 C           0.1195    2.4666   -0.0004 C.ar    1  LIG1       -0.0378
      7 C           1.5181    2.4458   -0.0008 C.ar    1  LIG1        0.0505
      8 H          -0.4090    3.4165   -0.0003 H       1  LIG1        0.0637
      9 H          -1.9035    1.3287    0.0016 H       1  LIG1        0.0631
     10 N          -1.1192   -2.1177    0.0008 N.1     1  LIG1       -0.1909
     11 C          -0.5708   -1.1108    0.0005 C.1     1  LIG1        0.0992
     12 N           2.1896    3.5590   -0.0012 N.pl3   1  LIG1       -0.2621
     13 H           3.0608    3.4225   -0.4727 H       1  LIG1        0.0564
     14 H           1.6626    4.2660   -0.4727 H       1  LIG1        0.1679
     15 C           4.2212    2.3851    0.0002 C.ar    1  LIG1       -0.0174
     16 C           5.6264    2.2916    0.0016 C.ar    1  LIG1       -0.0546
     17 C           3.4843    1.1831   -0.0005 C.ar    1  LIG1       -0.0095
     18 C           6.2715    1.0569    0.0017 C.ar    1  LIG1       -0.0407
     19 H           6.2143    3.2067    0.0024 H       1  LIG1        0.0622
     20 C           4.1278   -0.0498   -0.0004 C.ar    1  LIG1       -0.0330
     21 C           5.5247   -0.1219    0.0006 C.ar    1  LIG1        0.0251
     22 H           3.5374   -0.9625   -0.0009 H       1  LIG1        0.0642
     23 H           7.5706    1.0074    0.0029 H       1  LIG1        0.0636
     24 N           3.1964    4.6067   -0.0003 N.3     1  LIG1       -0.1349
     25 C           3.6767    3.5656   -0.0001 C.3     1  LIG1        0.0935
     26 N           6.1208   -1.2772    0.0008 N.pl3   1  LIG1       -0.3579
     27 H           5.5480   -1.9479   -0.4705 H       1  LIG1        0.1423
     28 H           6.9992   -1.1992   -0.4706 H       1  LIG1        0.1423
@<TRIPOS>BOND
     1    14    12    1
     2    13    25    1
     3    28    26    1
     4    27    26    1
     5    12     7    1
     6    12    24    1
     7    22    20    1
     8     7     4   ar
     9     7     6   ar
    10    17    20   ar
    11    17     4    1
    12    17    15   ar
    13    20    21   ar
    14     4     2   ar
    15     6     8    1
    16     6     3   ar
    17    24    25    1
    18    25    15    1
    19    15    16   ar
    20     1     3   ar
    21     1     2   ar
    22     1    11    1
    23     3     9    1
    24     2     5    1
    25    11    10    3
    26    21    26    1
    27    21    18   ar
    28    16    18   ar
    29    16    19    1
    30    18    23    1
