@<TRIPOS>MOLECULE
mol_data/noopt/geoms/mol2/4dh4ai12fa6le.out
 51 54 0 0 0
SMALL
GASTEIGER

@<TRIPOS>ATOM
      1 C           0.0509    0.0309    0.0002 C.ar    1  LIG1        0.0525
      2 C           1.4592    0.0309    0.0002 C.ar    1  LIG1       -0.0349
      3 C          -0.6045    1.2792    0.0002 C.ar    1  LIG1       -0.0426
      4 C           2.1849    1.2200   -0.0004 C.ar    1  LIG1        0.0040
      5 H           1.9850   -0.9213    0.0004 H       1  LIG1        0.0637
      6 C           0.1195    2.4666   -0.0004 C.ar    1  LIG1       -0.0392
      7 C           1.5181    2.4458   -0.0008 C.ar    1  LIG1        0.0324
      8 H          -0.4090    3.4165   -0.0003 H       1  LIG1        0.0636
      9 H          -1.9035    1.3287    0.0016 H       1  LIG1        0.0631
     10 N          -1.1192   -2.1177    0.0008 N.1     1  LIG1       -0.1909
     11 C          -0.5708   -1.1108    0.0005 C.1     1  LIG1        0.0992
     12 N           2.1896    3.5590   -0.0012 N.pl3   1  LIG1       -0.3575
     13 H           3.0608    3.4225   -0.4727 H       1  LIG1        0.1423
     14 H           1.6626    4.2660   -0.4727 H       1  LIG1        0.1423
     15 C           4.1518   -0.0588    0.0002 C.ar    1  LIG1       -0.0533
     16 C           5.5600   -0.0451    0.0016 C.ar    1  LIG1       -0.0501
     17 C           3.4843    1.1831   -0.0005 C.ar    1  LIG1       -0.0158
     18 C           6.2742    1.1510    0.0017 C.ar    1  LIG1        0.0239
     19 H           6.0950   -0.9922    0.0024 H       1  LIG1        0.0625
     20 C           4.1968    2.3775   -0.0004 C.ar    1  LIG1       -0.0504
     21 C           5.5955    2.3702    0.0006 C.ar    1  LIG1       -0.0391
     22 H           3.6591    3.3222   -0.0009 H       1  LIG1        0.0626
     23 H           3.5412   -1.2064   -0.0001 H       1  LIG1        0.0624
     24 C           6.2563    3.4901    0.0008 C.3     1  LIG1       -0.0390
     25 H           5.6851    4.2412    0.5053 H       1  LIG1        0.0278
     26 H           6.4376    3.7975   -1.0080 H       1  LIG1        0.0278
     27 H           7.1900    3.3532    0.5052 H       1  LIG1        0.0278
     28 C           7.5739    1.1267    0.0029 C.ar    1  LIG1        0.1771
     29 C           8.5391    0.1410    0.0038 C.ar    1  LIG1        0.1632
     30 C           9.8206    0.8153    0.0050 C.ar    1  LIG1        0.0266
     31 C           9.5534    2.1689    0.0046 C.ar    1  LIG1        0.1445
     32 O           8.1751    2.3861    0.0032 O.2     1  LIG1       -0.4509
     33 O           8.3612   -1.1468    0.0038 O.3     1  LIG1       -0.5032
     34 H           9.2137   -1.5880    0.0037 H       1  LIG1        0.2923
     35 H          10.9830    0.2332    0.0061 H       1  LIG1        0.0692
     36 C           9.6468    4.5161    0.0058 C.ar    1  LIG1        0.2255
     37 C          10.2689    3.2542    0.0052 C.ar    1  LIG1        0.0800
     38 C          11.6639    3.1986    0.0058 C.ar    1  LIG1       -0.0291
     39 C          12.3841    4.3944    0.0066 C.ar    1  LIG1        0.0437
     40 C          11.6714    5.6075    0.0068 C.ar    1  LIG1        0.0468
     41 N          10.3260    5.6796    0.0065 N.ar    1  LIG1       -0.2195
     42 H          12.1852    2.2309    0.0044 H       1  LIG1        0.0639
     43 H          12.2972    6.7470    0.0077 H       1  LIG1        0.0843
     44 O           8.3509    4.6193    0.0054 O.3     1  LIG1       -0.4792
     45 C           7.9821    6.0010    0.0052 C.3     1  LIG1        0.0804
     46 H           6.9155    6.0855    0.0047 H       1  LIG1        0.0660
     47 H           8.3771    6.4757    0.8790 H       1  LIG1        0.0660
     48 H           8.3779    6.4757   -0.8682 H       1  LIG1        0.0660
     49 C          13.6841    4.3960    0.0069 C.1     1  LIG1       -0.0681
     50 C          14.8853    4.3975    0.0072 C.1     1  LIG1       -0.1139
     51 H          15.9553    4.3988    0.0075 H       1  LIG1        0.1232
@<TRIPOS>BOND
     1    26    24    1
     2    48    45    1
     3    14    12    1
     4    13    12    1
     5    12     7    1
     6    22    20    1
     7     7     4   ar
     8     7     6   ar
     9    17    20   ar
    10    17     4    1
    11    17    15   ar
    12    20    21   ar
    13     4     2   ar
    14     6     8    1
    15     6     3   ar
    16    23    15    1
    17     1     2   ar
    18     1     3   ar
    19     1    11    1
    20     2     5    1
    21     3     9    1
    22    15    16   ar
    23    11    10    3
    24    21    24    1
    25    21    18   ar
    26    24    27    1
    27    24    25    1
    28    16    18   ar
    29    16    19    1
    30    18    28    1
    31    28    32   ar
    32    28    29   ar
    33    32    31   ar
    34    34    33    1
    35    33    29    1
    36    29    30   ar
    37    42    38    1
    38    31    30   ar
    39    31    37    1
    40    46    45    1
    41    30    35    1
    42    45    44    1
    43    45    47    1
    44    37    36   ar
    45    37    38   ar
    46    44    36    1
    47    36    41   ar
    48    38    39   ar
    49    41    40   ar
    50    39    40   ar
    51    39    49    1
    52    40    43    1
    53    49    50    3
    54    50    51    1
