@<TRIPOS>MOLECULE
mol_data/noopt/geoms/mol2/4dh4dh4dh4dh-.out
 54 58 0 0 0
SMALL
GASTEIGER

@<TRIPOS>ATOM
      1 C           0.0509    0.0309    0.0002 C.ar    1  LIG1        0.0525
      2 C           1.4592    0.0309    0.0002 C.ar    1  LIG1       -0.0348
      3 C          -0.6045    1.2792    0.0002 C.ar    1  LIG1       -0.0426
      4 C           2.1849    1.2200   -0.0004 C.ar    1  LIG1        0.0053
      5 H           1.9850   -0.9213    0.0004 H       1  LIG1        0.0637
      6 C           0.1195    2.4666   -0.0004 C.ar    1  LIG1       -0.0392
      7 C           1.5181    2.4458   -0.0008 C.ar    1  LIG1        0.0325
      8 H          -0.4090    3.4165   -0.0003 H       1  LIG1        0.0636
      9 H          -1.9035    1.3287    0.0016 H       1  LIG1        0.0631
     10 N          -1.1192   -2.1177    0.0008 N.1     1  LIG1       -0.1909
     11 C          -0.5708   -1.1108    0.0005 C.1     1  LIG1        0.0992
     12 N           2.1896    3.5590   -0.0012 N.pl3   1  LIG1       -0.3575
     13 H           3.0608    3.4225   -0.4727 H       1  LIG1        0.1423
     14 H           1.6626    4.2660   -0.4727 H       1  LIG1        0.1423
     15 C           4.1518   -0.0588    0.0002 C.ar    1  LIG1        0.0602
     16 C           5.5600   -0.0451    0.0016 C.ar    1  LIG1       -0.0342
     17 C           3.4843    1.1831   -0.0005 C.ar    1  LIG1        0.0030
     18 C           6.2742    1.1510    0.0017 C.ar    1  LIG1        0.0053
     19 H           6.0950   -0.9922    0.0024 H       1  LIG1        0.0637
     20 C           4.1968    2.3775   -0.0004 C.ar    1  LIG1       -0.0314
     21 C           5.5955    2.3702    0.0006 C.ar    1  LIG1        0.0330
     22 H           3.6591    3.3222   -0.0009 H       1  LIG1        0.0643
     23 N           3.0026   -2.2187   -0.0003 N.1     1  LIG1       -0.1908
     24 C           3.5412   -1.2064   -0.0001 C.1     1  LIG1        0.0998
     25 N           6.2562    3.4899    0.0008 N.pl3   1  LIG1       -0.3575
     26 H           7.1288    3.3621   -0.4705 H       1  LIG1        0.1423
     27 H           5.7224    4.1919   -0.4706 H       1  LIG1        0.1423
     28 C           8.2534   -0.1087    0.0043 C.ar    1  LIG1        0.0602
     29 C           9.6614   -0.0814    0.0071 C.ar    1  LIG1       -0.0342
     30 C           7.5739    1.1267    0.0029 C.ar    1  LIG1        0.0031
     31 C          10.3639    1.1216    0.0079 C.ar    1  LIG1        0.0058
     32 H          10.2056   -1.0232    0.0084 H       1  LIG1        0.0637
     33 C           8.2747    2.3279    0.0036 C.ar    1  LIG1       -0.0300
     34 C           9.6734    2.3342    0.0060 C.ar    1  LIG1        0.0511
     35 H           7.7279    3.2674    0.0026 H       1  LIG1        0.0643
     36 N           7.1251   -2.2796    0.0027 N.1     1  LIG1       -0.1908
     37 C           7.6539   -1.2622    0.0034 C.1     1  LIG1        0.0998
     38 N          10.3232    3.4602    0.0069 N.pl3   1  LIG1       -0.2620
     39 H          11.1972    3.3411   -0.4643 H       1  LIG1        0.0564
     40 H           9.7828    4.1573   -0.4643 H       1  LIG1        0.1679
     41 C          12.3772    2.3260    0.0125 C.ar    1  LIG1       -0.0174
     42 C          13.7839    2.2597    0.0167 C.ar    1  LIG1       -0.0546
     43 C          11.6638    1.1099    0.0104 C.ar    1  LIG1       -0.0095
     44 C          14.4529    1.0378    0.0181 C.ar    1  LIG1       -0.0407
     45 H          14.3540    3.1861    0.0186 H       1  LIG1        0.0622
     46 C          12.3311   -0.1102    0.0118 C.ar    1  LIG1       -0.0330
     47 C          13.7291   -0.1553    0.0156 C.ar    1  LIG1        0.0251
     48 H          11.7585   -1.0342    0.0102 H       1  LIG1        0.0642
     49 H          15.7527    1.0135    0.0219 H       1  LIG1        0.0636
     50 N          11.3095    4.5273    0.0097 N.3     1  LIG1       -0.1349
     51 C          11.8099    3.4957    0.0110 C.3     1  LIG1        0.0935
     52 N          14.3475   -1.2988    0.0171 N.pl3   1  LIG1       -0.3579
     53 H          13.7881   -1.9809   -0.4539 H       1  LIG1        0.1423
     54 H          15.2245   -1.2042   -0.4540 H       1  LIG1        0.1423
@<TRIPOS>BOND
     1    14    12    1
     2    13    12    1
     3    27    25    1
     4    26    25    1
     5    40    38    1
     6    39    51    1
     7    54    52    1
     8    53    52    1
     9    12     7    1
    10    22    20    1
    11     7     6   ar
    12     7     4   ar
    13    17    20   ar
    14    17     4    1
    15    17    15   ar
    16    20    21   ar
    17     6     8    1
    18     6     3   ar
    19     4     2   ar
    20    23    24    3
    21    24    15    1
    22     1     2   ar
    23     1     3   ar
    24     1    11    1
    25     2     5    1
    26     3     9    1
    27    15    16   ar
    28    11    10    3
    29    21    25    1
    30    21    18   ar
    31    16    18   ar
    32    16    19    1
    33    18    30    1
    34    35    33    1
    35    36    37    3
    36    30    33   ar
    37    30    28   ar
    38    37    28    1
    39    33    34   ar
    40    28    29   ar
    41    34    38    1
    42    34    31   ar
    43    38    50    1
    44    29    31   ar
    45    29    32    1
    46    31    43    1
    47    50    51    1
    48    48    46    1
    49    43    46   ar
    50    43    41   ar
    51    51    41    1
    52    46    47   ar
    53    41    42   ar
    54    47    52    1
    55    47    44   ar
    56    42    44   ar
    57    42    45    1
    58    44    49    1
