@<TRIPOS>MOLECULE
mol_data/noopt/geoms/mol2/4dh4dh-4dh.out
 41 45 0 0 0
SMALL
GASTEIGER

@<TRIPOS>ATOM
      1 C           0.0509    0.0309    0.0002 C.ar    1  LIG1        0.0525
      2 C           1.4592    0.0309    0.0002 C.ar    1  LIG1       -0.0348
      3 C          -0.6045    1.2792    0.0002 C.ar    1  LIG1       -0.0425
      4 C           2.1849    1.2200   -0.0004 C.ar    1  LIG1        0.0058
      5 H           1.9850   -0.9213    0.0004 H       1  LIG1        0.0637
      6 C           0.1195    2.4666   -0.0004 C.ar    1  LIG1       -0.0378
      7 C           1.5181    2.4458   -0.0008 C.ar    1  LIG1        0.0505
      8 H          -0.4090    3.4165   -0.0003 H       1  LIG1        0.0637
      9 H          -1.9035    1.3287    0.0016 H       1  LIG1        0.0631
     10 N          -1.1192   -2.1177    0.0008 N.1     1  LIG1       -0.1909
     11 C          -0.5708   -1.1108    0.0005 C.1     1  LIG1        0.0992
     12 N           2.1896    3.5590   -0.0012 N.pl3   1  LIG1       -0.2621
     13 H           3.0608    3.4225   -0.4727 H       1  LIG1        0.0564
     14 H           1.6626    4.2660   -0.4727 H       1  LIG1        0.1679
     15 C           4.2212    2.3851    0.0002 C.ar    1  LIG1       -0.0168
     16 C           5.6264    2.2916    0.0016 C.ar    1  LIG1       -0.0468
     17 C           3.4843    1.1831   -0.0005 C.ar    1  LIG1       -0.0094
     18 C           6.2715    1.0569    0.0017 C.ar    1  LIG1        0.0049
     19 H           6.2143    3.2067    0.0024 H       1  LIG1        0.0628
     20 C           4.1278   -0.0498   -0.0004 C.ar    1  LIG1       -0.0309
     21 C           5.5247   -0.1219    0.0006 C.ar    1  LIG1        0.0511
     22 H           3.5374   -0.9625   -0.0009 H       1  LIG1        0.0643
     23 N           3.1964    4.6067   -0.0003 N.3     1  LIG1       -0.1349
     24 C           3.6767    3.5656   -0.0001 C.3     1  LIG1        0.0936
     25 N           6.1208   -1.2772    0.0008 N.pl3   1  LIG1       -0.2620
     26 H           5.5480   -1.9479   -0.4705 H       1  LIG1        0.1679
     27 H           6.9992   -1.1992   -0.4706 H       1  LIG1        0.0564
     28 C           8.2259   -0.2409    0.0043 C.ar    1  LIG1       -0.0174
     29 C           9.6342   -0.2409    0.0071 C.ar    1  LIG1       -0.0546
     30 C           7.5705    1.0074    0.0029 C.ar    1  LIG1       -0.0095
     31 C          10.3599    0.9482    0.0079 C.ar    1  LIG1       -0.0407
     32 H          10.1600   -1.1931    0.0084 H       1  LIG1        0.0622
     33 C           8.2945    2.1948    0.0036 C.ar    1  LIG1       -0.0330
     34 C           9.6931    2.1740    0.0060 C.ar    1  LIG1        0.0251
     35 H           7.7660    3.1447    0.0026 H       1  LIG1        0.0642
     36 H          11.6594    0.9113    0.0104 H       1  LIG1        0.0636
     37 N           7.0558   -2.3896    0.0027 N.3     1  LIG1       -0.1349
     38 C           7.6041   -1.3826    0.0034 C.3     1  LIG1        0.0935
     39 N          10.3646    3.2872    0.0069 N.pl3   1  LIG1       -0.3579
     40 H          11.2360    3.1511   -0.4643 H       1  LIG1        0.1423
     41 H           9.8378    3.9946   -0.4643 H       1  LIG1        0.1423
@<TRIPOS>BOND
     1    14    12    1
     2    13    24    1
     3    27    38    1
     4    26    25    1
     5    41    39    1
     6    40    39    1
     7    12     7    1
     8    12    23    1
     9    22    20    1
    10     7     4   ar
    11     7     6   ar
    12    17    20   ar
    13    17     4    1
    14    17    15   ar
    15    20    21   ar
    16     4     2   ar
    17     6     8    1
    18     6     3   ar
    19    23    24    1
    20    24    15    1
    21    15    16   ar
    22     1     2   ar
    23     1     3   ar
    24     1    11    1
    25     2     5    1
    26     3     9    1
    27    11    10    3
    28    21    25    1
    29    21    18   ar
    30    25    37    1
    31    16    18   ar
    32    16    19    1
    33    18    30    1
    34    35    33    1
    35    37    38    1
    36    30    33   ar
    37    30    28   ar
    38    38    28    1
    39    33    34   ar
    40    28    29   ar
    41    34    39    1
    42    34    31   ar
    43    29    31   ar
    44    29    32    1
    45    31    36    1
