@<TRIPOS>MOLECULE
mol_data/noopt/geoms/mol2/4dh4ha(30)4dd(110)12hh(120).out
 50 53 0 0 0
SMALL
GASTEIGER

@<TRIPOS>ATOM
      1 C           0.0509    0.0309    0.0002 C.ar    1  LIG1        0.0525
      2 C           1.4592    0.0309    0.0002 C.ar    1  LIG1       -0.0348
      3 C          -0.6045    1.2792    0.0002 C.ar    1  LIG1       -0.0426
      4 C           2.1849    1.2200   -0.0004 C.ar    1  LIG1        0.0057
      5 H           1.9850   -0.9213    0.0004 H       1  LIG1        0.0637
      6 C           0.1195    2.4666   -0.0004 C.ar    1  LIG1       -0.0392
      7 C           1.5181    2.4458   -0.0008 C.ar    1  LIG1        0.0325
      8 H          -0.4090    3.4165   -0.0003 H       1  LIG1        0.0636
      9 H          -1.9035    1.3287    0.0016 H       1  LIG1        0.0631
     10 N          -1.1192   -2.1177    0.0008 N.1     1  LIG1       -0.1909
     11 C          -0.5708   -1.1108    0.0005 C.1     1  LIG1        0.0992
     12 N           2.1896    3.5590   -0.0012 N.pl3   1  LIG1       -0.3575
     13 H           3.0608    3.4225   -0.4727 H       1  LIG1        0.1423
     14 H           1.6626    4.2660   -0.4727 H       1  LIG1        0.1423
     15 C           4.1565    0.1053    0.6113 C.ar    1  LIG1        0.0330
     16 C           5.5646    0.1125    0.5857 C.ar    1  LIG1       -0.0327
     17 C           3.4843    1.1831   -0.0005 C.ar    1  LIG1        0.0046
     18 C           6.2740    1.1459   -0.0222 C.ar    1  LIG1       -0.0148
     19 H           6.1032   -0.7094    1.0521 H       1  LIG1        0.0642
     20 C           4.1921    2.2150   -0.6075 C.ar    1  LIG1       -0.0516
     21 C           5.5907    2.2039   -0.6228 C.ar    1  LIG1       -0.0533
     22 H           3.6508    3.0350   -1.0724 H       1  LIG1        0.0624
     23 N           3.5503   -0.8866    1.1933 N.pl3   1  LIG1       -0.3575
     24 H           2.5882   -0.8952    0.9210 H       1  LIG1        0.1423
     25 H           3.9815   -1.7468    0.9210 H       1  LIG1        0.1423
     26 H           6.2470    3.1713   -1.1916 H       1  LIG1        0.0624
     27 C           8.2888    1.5255    1.1182 C.ar    1  LIG1        0.0602
     28 C           9.6953    1.4812    1.0615 C.ar    1  LIG1       -0.0318
     29 C           7.5737    1.1205   -0.0274 C.ar    1  LIG1        0.0008
     30 C          10.3623    1.0523   -0.0838 C.ar    1  LIG1        0.0377
     31 H          10.2666    1.7894    1.9343 H       1  LIG1        0.0638
     32 C           8.2391    0.6923   -1.1711 C.ar    1  LIG1       -0.0347
     33 C           9.6369    0.6550   -1.2077 C.ar    1  LIG1        0.0631
     34 H           7.6652    0.3852   -2.0417 H       1  LIG1        0.0637
     35 N           7.2246    2.2954    3.1822 N.1     1  LIG1       -0.1908
     36 C           7.7233    1.9346    2.2149 C.1     1  LIG1        0.0998
     37 N          10.7972   -0.0997   -3.2251 N.1     1  LIG1       -0.1908
     38 C          10.2534    0.2540   -2.2796 C.1     1  LIG1        0.0999
     39 C          11.6619    1.0239   -0.1014 C.ar    1  LIG1        0.1585
     40 C          12.6675    1.5345    0.6931 C.ar    1  LIG1        0.0920
     41 C          13.9195    1.1228    0.0931 C.ar    1  LIG1        0.0845
     42 C          13.5957    0.3876   -1.0287 C.ar    1  LIG1        0.1150
     43 O          12.2096    0.3125   -1.1698 O.2     1  LIG1       -0.4591
     44 H          14.2650   -0.2317   -1.9552 H       1  LIG1        0.1049
     45 N          12.5438    2.2478    1.7728 N.pl3   1  LIG1       -0.3536
     46 H          13.2498    2.9559    1.7871 H       1  LIG1        0.1425
     47 H          11.6408    2.6771    1.7871 H       1  LIG1        0.1425
     48 N          15.1053    1.4053    0.5450 N.pl3   1  LIG1       -0.3541
     49 H          15.7579    0.7214    0.2188 H       1  LIG1        0.1425
     50 H          15.3795    2.3099    0.2188 H       1  LIG1        0.1425
@<TRIPOS>BOND
     1    37    38    3
     2    38    33    1
     3    34    32    1
     4    44    42    1
     5    33    32   ar
     6    33    30   ar
     7    26    21    1
     8    32    29   ar
     9    43    42   ar
    10    43    39   ar
    11    22    20    1
    12    42    41   ar
    13    21    20   ar
    14    21    18   ar
    15    20    17   ar
    16    14    12    1
    17    13    12    1
    18    39    30    1
    19    39    40   ar
    20    30    28   ar
    21    29    18    1
    22    29    27   ar
    23    18    16   ar
    24    12     7    1
    25     7     6   ar
    26     7     4   ar
    27    17     4    1
    28    17    15   ar
    29     6     8    1
    30     6     3   ar
    31     4     2   ar
    32     1     2   ar
    33     1     3   ar
    34     1    11    1
    35     2     5    1
    36     3     9    1
    37    11    10    3
    38    41    48    1
    39    41    40   ar
    40    50    48    1
    41    49    48    1
    42    16    15   ar
    43    16    19    1
    44    15    23    1
    45    40    45    1
    46    25    23    1
    47    24    23    1
    48    28    27   ar
    49    28    31    1
    50    27    36    1
    51    45    46    1
    52    45    47    1
    53    36    35    3
