@<TRIPOS>MOLECULE
mol_data/noopt/geoms/mol2/4dh4dh-4dh-4dh.out
 54 59 0 0 0
SMALL
GASTEIGER

@<TRIPOS>ATOM
      1 C           0.0509    0.0309    0.0002 C.ar    1  LIG1        0.0525
      2 C           1.4592    0.0309    0.0002 C.ar    1  LIG1       -0.0348
      3 C          -0.6045    1.2792    0.0002 C.ar    1  LIG1       -0.0425
      4 C           2.1849    1.2200   -0.0004 C.ar    1  LIG1        0.0058
      5 H           1.9850   -0.9213    0.0004 H       1  LIG1        0.0637
      6 C           0.1195    2.4666   -0.0004 C.ar    1  LIG1       -0.0378
      7 C           1.5181    2.4458   -0.0008 C.ar    1  LIG1        0.0505
      8 H          -0.4090    3.4165   -0.0003 H       1  LIG1        0.0637
      9 H          -1.9035    1.3287    0.0016 H       1  LIG1        0.0631
     10 N          -1.1192   -2.1177    0.0008 N.1     1  LIG1       -0.1909
     11 C          -0.5708   -1.1108    0.0005 C.1     1  LIG1        0.0992
     12 N           2.1896    3.5590   -0.0012 N.pl3   1  LIG1       -0.2621
     13 H           3.0608    3.4225   -0.4727 H       1  LIG1        0.0564
     14 H           1.6626    4.2660   -0.4727 H       1  LIG1        0.1679
     15 C           4.2212    2.3851    0.0002 C.ar    1  LIG1       -0.0168
     16 C           5.6264    2.2916    0.0016 C.ar    1  LIG1       -0.0468
     17 C           3.4843    1.1831   -0.0005 C.ar    1  LIG1       -0.0094
     18 C           6.2715    1.0569    0.0017 C.ar    1  LIG1        0.0044
     19 H           6.2143    3.2067    0.0024 H       1  LIG1        0.0628
     20 C           4.1278   -0.0498   -0.0004 C.ar    1  LIG1       -0.0324
     21 C           5.5247   -0.1219    0.0006 C.ar    1  LIG1        0.0330
     22 H           3.5374   -0.9625   -0.0009 H       1  LIG1        0.0642
     23 N           3.1964    4.6067   -0.0003 N.3     1  LIG1       -0.1349
     24 C           3.6767    3.5656   -0.0001 C.3     1  LIG1        0.0936
     25 N           6.1208   -1.2772    0.0008 N.pl3   1  LIG1       -0.3575
     26 H           5.5480   -1.9479   -0.4705 H       1  LIG1        0.1423
     27 H           6.9992   -1.1992   -0.4706 H       1  LIG1        0.1423
     28 C           8.3190    2.2022    0.0043 C.ar    1  LIG1        0.0602
     29 C           9.7232    2.0950    0.0071 C.ar    1  LIG1       -0.0342
     30 C           7.5705    1.0074    0.0029 C.ar    1  LIG1        0.0031
     31 C          10.3563    0.8541    0.0079 C.ar    1  LIG1        0.0058
     32 H          10.3199    3.0044    0.0084 H       1  LIG1        0.0637
     33 C           8.2020   -0.2317    0.0037 C.ar    1  LIG1       -0.0300
     34 C           9.5982   -0.3174    0.0061 C.ar    1  LIG1        0.0511
     35 H           7.6028   -1.1386    0.0026 H       1  LIG1        0.0643
     36 N           7.3158    4.4336    0.0027 N.1     1  LIG1       -0.1908
     37 C           7.7859    3.3879    0.0034 C.1     1  LIG1        0.0998
     38 N          10.1830   -1.4784    0.0069 N.pl3   1  LIG1       -0.2620
     39 H           9.6038   -2.1437   -0.4643 H       1  LIG1        0.1679
     40 H          11.0622   -1.4091   -0.4643 H       1  LIG1        0.0564
     41 C          12.2980   -0.4626    0.0125 C.ar    1  LIG1       -0.0174
     42 C          13.7062   -0.4762    0.0167 C.ar    1  LIG1       -0.0546
     43 C          11.6548    0.7920    0.0104 C.ar    1  LIG1       -0.0095
     44 C          14.4434    0.7058    0.0181 C.ar    1  LIG1       -0.0407
     45 H          14.2228   -1.4335    0.0186 H       1  LIG1        0.0622
     46 C          12.3902    1.9724    0.0118 C.ar    1  LIG1       -0.0330
     47 C          13.7886    1.9380    0.0156 C.ar    1  LIG1        0.0251
     48 H          11.8710    2.9273    0.0102 H       1  LIG1        0.0642
     49 H          15.7425    0.6563    0.0219 H       1  LIG1        0.0636
     50 N          11.1071   -2.5998    0.0098 N.3     1  LIG1       -0.1349
     51 C          11.6652   -1.5982    0.0110 C.3     1  LIG1        0.0935
     52 N          14.4708    3.0446    0.0171 N.pl3   1  LIG1       -0.3579
     53 H          15.3410    2.9003   -0.4539 H       1  LIG1        0.1423
     54 H          13.9510    3.7573   -0.4540 H       1  LIG1        0.1423
@<TRIPOS>BOND
     1    14    12    1
     2    13    24    1
     3    27    25    1
     4    26    25    1
     5    40    51    1
     6    39    38    1
     7    54    52    1
     8    53    52    1
     9    12     7    1
    10    12    23    1
    11    22    20    1
    12     7     6   ar
    13     7     4   ar
    14    17    20   ar
    15    17     4    1
    16    17    15   ar
    17    20    21   ar
    18     6     8    1
    19     6     3   ar
    20     4     2   ar
    21    23    24    1
    22    24    15    1
    23    15    16   ar
    24     1     2   ar
    25     1     3   ar
    26     1    11    1
    27     2     5    1
    28     3     9    1
    29    11    10    3
    30    21    25    1
    31    21    18   ar
    32    16    18   ar
    33    16    19    1
    34    18    30    1
    35    35    33    1
    36    36    37    3
    37    30    33   ar
    38    30    28   ar
    39    37    28    1
    40    33    34   ar
    41    28    29   ar
    42    34    38    1
    43    34    31   ar
    44    38    50    1
    45    29    31   ar
    46    29    32    1
    47    31    43    1
    48    50    51    1
    49    48    46    1
    50    43    46   ar
    51    43    41   ar
    52    51    41    1
    53    46    47   ar
    54    41    42   ar
    55    47    52    1
    56    47    44   ar
    57    42    44   ar
    58    42    45    1
    59    44    49    1
