@<TRIPOS>MOLECULE
mol_data/noopt/geoms/mol2/4dh4dh4dh-4dh.out
 54 59 0 0 0
SMALL
GASTEIGER

@<TRIPOS>ATOM
      1 C           0.0509    0.0309    0.0002 C.ar    1  LIG1        0.0525
      2 C           1.4592    0.0309    0.0002 C.ar    1  LIG1       -0.0348
      3 C          -0.6045    1.2792    0.0002 C.ar    1  LIG1       -0.0426
      4 C           2.1849    1.2200   -0.0004 C.ar    1  LIG1        0.0053
      5 H           1.9850   -0.9213    0.0004 H       1  LIG1        0.0637
      6 C           0.1195    2.4666   -0.0004 C.ar    1  LIG1       -0.0392
      7 C           1.5181    2.4458   -0.0008 C.ar    1  LIG1        0.0325
      8 H          -0.4090    3.4165   -0.0003 H       1  LIG1        0.0636
      9 H          -1.9035    1.3287    0.0016 H       1  LIG1        0.0631
     10 N          -1.1192   -2.1177    0.0008 N.1     1  LIG1       -0.1909
     11 C          -0.5708   -1.1108    0.0005 C.1     1  LIG1        0.0992
     12 N           2.1896    3.5590   -0.0012 N.pl3   1  LIG1       -0.3575
     13 H           3.0608    3.4225   -0.4727 H       1  LIG1        0.1423
     14 H           1.6626    4.2660   -0.4727 H       1  LIG1        0.1423
     15 C           4.1518   -0.0588    0.0002 C.ar    1  LIG1        0.0602
     16 C           5.5600   -0.0451    0.0016 C.ar    1  LIG1       -0.0342
     17 C           3.4843    1.1831   -0.0005 C.ar    1  LIG1        0.0031
     18 C           6.2742    1.1510    0.0017 C.ar    1  LIG1        0.0058
     19 H           6.0950   -0.9922    0.0024 H       1  LIG1        0.0637
     20 C           4.1968    2.3775   -0.0004 C.ar    1  LIG1       -0.0300
     21 C           5.5955    2.3702    0.0006 C.ar    1  LIG1        0.0511
     22 H           3.6591    3.3222   -0.0009 H       1  LIG1        0.0643
     23 N           3.0026   -2.2187   -0.0003 N.1     1  LIG1       -0.1908
     24 C           3.5412   -1.2064   -0.0001 C.1     1  LIG1        0.0998
     25 N           6.2562    3.4899    0.0008 N.pl3   1  LIG1       -0.2620
     26 H           7.1288    3.3621   -0.4705 H       1  LIG1        0.0564
     27 H           5.7224    4.1919   -0.4706 H       1  LIG1        0.1679
     28 C           8.2991    2.3358    0.0043 C.ar    1  LIG1       -0.0168
     29 C           9.7051    2.2559    0.0071 C.ar    1  LIG1       -0.0468
     30 C           7.5739    1.1267    0.0029 C.ar    1  LIG1       -0.0094
     31 C          10.3621    1.0275    0.0079 C.ar    1  LIG1        0.0049
     32 H          10.2841    3.1767    0.0084 H       1  LIG1        0.0628
     33 C           8.2293   -0.0999    0.0037 C.ar    1  LIG1       -0.0309
     34 C           9.6269   -0.1585    0.0061 C.ar    1  LIG1        0.0511
     35 H           7.6478   -1.0183    0.0026 H       1  LIG1        0.0643
     36 N           7.2527    4.5473    0.0027 N.3     1  LIG1       -0.1349
     37 C           7.7431    3.5109    0.0034 C.3     1  LIG1        0.0936
     38 N          10.2341   -1.3080    0.0069 N.pl3   1  LIG1       -0.2620
     39 H           9.6680   -1.9844   -0.4643 H       1  LIG1        0.1679
     40 H          11.1118   -1.2216   -0.4643 H       1  LIG1        0.0564
     41 C          12.3290   -0.2513    0.0125 C.ar    1  LIG1       -0.0174
     42 C          13.7373   -0.2376    0.0167 C.ar    1  LIG1       -0.0546
     43 C          11.6616    0.9906    0.0104 C.ar    1  LIG1       -0.0095
     44 C          14.4514    0.9585    0.0181 C.ar    1  LIG1       -0.0407
     45 H          14.2723   -1.1847    0.0186 H       1  LIG1        0.0622
     46 C          12.3740    2.1850    0.0118 C.ar    1  LIG1       -0.0330
     47 C          13.7727    2.1777    0.0156 C.ar    1  LIG1        0.0251
     48 H          11.8363    3.1297    0.0102 H       1  LIG1        0.0642
     49 H          15.7512    0.9342    0.0219 H       1  LIG1        0.0636
     50 N          11.1798   -2.4112    0.0098 N.3     1  LIG1       -0.1349
     51 C          11.7184   -1.3989    0.0110 C.3     1  LIG1        0.0935
     52 N          14.4334    3.2974    0.0171 N.pl3   1  LIG1       -0.3579
     53 H          15.3063    3.1699   -0.4539 H       1  LIG1        0.1423
     54 H          13.8999    3.9998   -0.4540 H       1  LIG1        0.1423
@<TRIPOS>BOND
     1    14    12    1
     2    13    12    1
     3    27    25    1
     4    26    37    1
     5    40    51    1
     6    39    38    1
     7    54    52    1
     8    53    52    1
     9    12     7    1
    10    22    20    1
    11     7     6   ar
    12     7     4   ar
    13    17    20   ar
    14    17     4    1
    15    17    15   ar
    16    20    21   ar
    17     6     8    1
    18     6     3   ar
    19     4     2   ar
    20    23    24    3
    21    24    15    1
    22     1     2   ar
    23     1     3   ar
    24     1    11    1
    25     2     5    1
    26     3     9    1
    27    15    16   ar
    28    11    10    3
    29    21    25    1
    30    21    18   ar
    31    25    36    1
    32    16    18   ar
    33    16    19    1
    34    18    30    1
    35    35    33    1
    36    36    37    1
    37    30    33   ar
    38    30    28   ar
    39    37    28    1
    40    33    34   ar
    41    28    29   ar
    42    34    38    1
    43    34    31   ar
    44    38    50    1
    45    29    31   ar
    46    29    32    1
    47    31    43    1
    48    50    51    1
    49    48    46    1
    50    43    46   ar
    51    43    41   ar
    52    51    41    1
    53    46    47   ar
    54    41    42   ar
    55    47    52    1
    56    47    44   ar
    57    42    44   ar
    58    42    45    1
    59    44    49    1
