@<TRIPOS>MOLECULE
mol_data/noopt/geoms/mol2/4di6ae-13hh13li.out
 54 56 0 0 0
SMALL
GASTEIGER

@<TRIPOS>ATOM
      1 C           0.0509    0.0309    0.0002 C.ar    1  LIG1        0.0524
      2 C           1.4592    0.0309    0.0002 C.ar    1  LIG1       -0.0363
      3 C          -0.6045    1.2792    0.0002 C.ar    1  LIG1       -0.0441
      4 C           2.1849    1.2200   -0.0004 C.ar    1  LIG1       -0.0123
      5 H           1.9850   -0.9213    0.0004 H       1  LIG1        0.0636
      6 C           0.1195    2.4666   -0.0004 C.ar    1  LIG1       -0.0570
      7 C           1.5181    2.4458   -0.0008 C.ar    1  LIG1       -0.0426
      8 H          -0.4090    3.4165   -0.0003 H       1  LIG1        0.0621
      9 H          -1.9035    1.3287    0.0016 H       1  LIG1        0.0630
     10 N          -1.1192   -2.1177    0.0008 N.1     1  LIG1       -0.1909
     11 C          -0.5708   -1.1108    0.0005 C.1     1  LIG1        0.0992
     12 C           2.1897    3.5592   -0.0012 C.3     1  LIG1       -0.0391
     13 H           1.6260    4.3160    0.5031 H       1  LIG1        0.0278
     14 H           2.3738    3.8644   -1.0102 H       1  LIG1        0.0278
     15 H           3.1221    3.4135    0.5030 H       1  LIG1        0.0278
     16 C           4.2297    2.3762   -0.0216 C.ar    1  LIG1        0.0361
     17 C           3.4844    1.1831   -0.0005 C.ar    1  LIG1        0.0017
     18 C           4.1715   -0.0320    0.0205 C.ar    1  LIG1       -0.0350
     19 C           5.5674   -0.0147    0.0195 C.ar    1  LIG1        0.0527
     20 C           6.2235    1.2297   -0.0026 C.ar    1  LIG1        0.1042
     21 N           5.5764    2.4113   -0.0228 N.ar    1  LIG1       -0.2516
     22 H           3.6233   -0.9846    0.0362 H       1  LIG1        0.0637
     23 H           3.6351    3.5321   -0.0414 H       1  LIG1        0.0836
     24 C           6.2531   -1.1189    0.0383 C.1     1  LIG1       -0.0675
     25 C           6.8868   -2.1392    0.0557 C.1     1  LIG1       -0.1138
     26 H           7.4513   -3.0481    0.0712 H       1  LIG1        0.1232
     27 C           7.5217    1.2976   -0.0044 C.ar    1  LIG1        0.0882
     28 C           8.4565    0.3106   -0.0059 C.ar    1  LIG1        0.0603
     29 C           9.7428    0.9398   -0.0063 C.ar    1  LIG1        0.0341
     30 C           9.5376    2.2837   -0.0068 C.ar    1  LIG1        0.0767
     31 N           8.1792    2.5071   -0.0052 N.ar    1  LIG1       -0.3497
     32 H           7.7424    3.4000   -0.0052 H       1  LIG1        0.1661
     33 N           8.2220   -0.9681   -0.0054 N.pl3   1  LIG1       -0.3558
     34 H           7.3587   -1.1488   -0.4767 H       1  LIG1        0.1424
     35 H           8.9649   -1.4434   -0.4767 H       1  LIG1        0.1424
     36 N          10.8963    0.3401   -0.0067 N.3     2  LIG2       -0.2731
     37 H          10.8152   -0.5380   -0.4782 H       1  LIG1        0.1366
     38 H          11.5685    0.9108   -0.4782 H       1  LIG1        0.1366
     39 C          10.3880    3.2669   -0.0075 C.ar    1  LIG1        0.1060
     40 C          11.7473    3.2573    0.0083 C.ar    1  LIG1        0.1496
     41 C          12.1848    4.6208   -0.0000 C.ar    1  LIG1        0.0092
     42 C          11.0736    5.4037   -0.0223 C.ar    1  LIG1        0.0087
     43 N           9.9714    4.5788   -0.0265 N.ar    1  LIG1       -0.3563
     44 H           9.0250    4.8824   -0.0415 H       1  LIG1        0.1655
     45 H          10.9538    6.6981   -0.0373 H       1  LIG1        0.0811
     46 O          12.5068    2.2024    0.0289 O.3     1  LIG1       -0.4927
     47 C          11.6917    1.0275    0.0363 C.3     1  LIG1        0.0789
     48 H          12.3172    0.1595    0.0531 H       1  LIG1        0.0660
     49 H          11.0660    1.0330    0.9044 H       1  LIG1        0.0660
     50 H          11.0820    1.0108   -0.8427 H       1  LIG1        0.0660
     51 C          13.4165    5.0373    0.0111 C.3     1  LIG1       -0.0348
     52 H          13.4705    5.9777    0.5186 H       1  LIG1        0.0279
     53 H          13.7626    5.1543   -0.9946 H       1  LIG1        0.0279
     54 H          14.0301    4.3224    0.5185 H       1  LIG1        0.0279
@<TRIPOS>BOND
     1    14    12    1
     2    53    51    1
     3    50    47    1
     4    38    36    1
     5    37    36    1
     6    35    33    1
     7    34    33    1
     8    44    43    1
     9    23    16    1
    10    45    42    1
    11    43    42   ar
    12    43    39   ar
    13    21    16   ar
    14    21    20   ar
    15    42    41   ar
    16    16    17   ar
    17    39    30    1
    18    39    40   ar
    19    30    29   ar
    20    30    31   ar
    21    29    28   ar
    22    28    33    1
    23    28    27   ar
    24    32    31    1
    25    31    27   ar
    26    27    20    1
    27    20    19   ar
    28    12     7    1
    29    12    15    1
    30    12    13    1
    31     7     6   ar
    32     7     4   ar
    33    17     4    1
    34    17    18   ar
    35     6     8    1
    36     6     3   ar
    37     4     2   ar
    38    41    40   ar
    39    41    51    1
    40     1     3   ar
    41     1     2   ar
    42     1    11    1
    43     3     9    1
    44     2     5    1
    45    11    10    3
    46    40    46    1
    47    51    54    1
    48    51    52    1
    49    19    18   ar
    50    19    24    1
    51    18    22    1
    52    46    47    1
    53    47    48    1
    54    47    49    1
    55    24    25    3
    56    25    26    1
