@<TRIPOS>MOLECULE
mol_data/noopt/geoms/mol2/4dl12aa6li-6de.out
 52 52 0 0 0
SMALL
GASTEIGER

@<TRIPOS>ATOM
      1 C           0.0509    0.0309    0.0002 C.ar    1  LIG1        0.0526
      2 C           1.4592    0.0309    0.0002 C.ar    1  LIG1       -0.0330
      3 C          -0.6045    1.2792    0.0002 C.ar    1  LIG1       -0.0407
      4 C           2.1849    1.2200   -0.0004 C.ar    1  LIG1        0.0306
      5 H           1.9850   -0.9213    0.0004 H       1  LIG1        0.0638
      6 C           0.1195    2.4666   -0.0004 C.ar    1  LIG1       -0.0131
      7 C           1.5181    2.4458   -0.0008 C.ar    1  LIG1        0.1867
      8 H          -0.4090    3.4165   -0.0003 H       1  LIG1        0.0656
      9 H          -1.9035    1.3287    0.0016 H       1  LIG1        0.0631
     10 N          -1.1192   -2.1177    0.0008 N.1     1  LIG1       -0.1909
     11 C          -0.5708   -1.1108    0.0005 C.1     1  LIG1        0.0992
     12 O           2.1896    3.5590   -0.0012 O.3     1  LIG1       -0.2873
     13 C           3.5904    3.2714   -0.0014 C.3     2  LIG2       -0.0309
     14 H           4.1427    4.1879   -0.0019 H       1  LIG1        0.0309
     15 H           3.8386    2.7059    0.8724 H       0  HOH0        0.2052
     16 H           3.8381    2.7052   -0.8749 H       0  HOH0        0.2052
     17 C           3.4844    1.1831   -0.0005 C.2     1  LIG1       -0.0064
     18 C           4.4399    0.1881   -0.0006 C.2     1  LIG1       -0.0527
     19 C           5.7279    0.8499   -0.0007 C.2     1  LIG1       -0.0527
     20 C           5.4738    2.2061   -0.0008 C.2     1  LIG1       -0.0049
     21 O           4.0977    2.4367   -0.0007 O.3     3  HOH3       -0.4105
     22 H           4.2495   -1.0979   -0.0005 H       1  LIG1        0.0624
     23 H           6.8846    0.2566   -0.0008 H       1  LIG1        0.0624
     24 C           5.5902    4.5522   -0.0218 C.ar    1  LIG1        0.2230
     25 C           6.1999    3.2844   -0.0008 C.ar    1  LIG1        0.0445
     26 C           7.5941    3.2154    0.0202 C.ar    1  LIG1       -0.0440
     27 C           8.3258    4.4041    0.0192 C.ar    1  LIG1       -0.0236
     28 C           7.6251    5.6240   -0.0029 C.ar    1  LIG1        0.0805
     29 N           6.2806    5.7090   -0.0231 N.ar    1  LIG1       -0.2120
     30 H           8.1059    2.2427    0.0360 H       1  LIG1        0.0629
     31 O           4.2955    4.6679   -0.0417 O.3     1  LIG1       -0.4792
     32 C           3.9401    6.0530   -0.0491 C.3     1  LIG1        0.0804
     33 H           2.8744    6.1478   -0.0656 H       1  LIG1        0.0660
     34 H           4.3265    6.5251    0.8300 H       1  LIG1        0.0660
     35 H           4.3534    6.5227   -0.9171 H       1  LIG1        0.0660
     36 C           9.6260    4.3932    0.0381 C.3     1  LIG1       -0.0377
     37 H           9.9826    5.2639    0.5476 H       1  LIG1        0.0278
     38 H           9.9972    4.3902   -0.9655 H       1  LIG1        0.0278
     39 H           9.9679    3.5166    0.5476 H       1  LIG1        0.0278
     40 C           7.5520    7.9720   -0.0053 C.ar    1  LIG1        0.1492
     41 C           8.2619    6.7573   -0.0045 C.ar    1  LIG1        0.0377
     42 C           9.6573    6.8007   -0.0053 C.ar    1  LIG1       -0.0329
     43 C          10.2910    8.0446   -0.0070 C.ar    1  LIG1        0.0435
     44 C           9.4941    9.2041   -0.0078 C.ar    1  LIG1        0.0444
     45 N           8.1470    9.1806   -0.0069 N.ar    1  LIG1       -0.2428
     46 H          10.2459    5.8724   -0.0057 H       1  LIG1        0.0638
     47 H          10.0376   10.3850   -0.0093 H       1  LIG1        0.0842
     48 N           5.1055    7.9929   -0.0038 N.1     1  LIG1       -0.1893
     49 C           6.2520    7.9831   -0.0045 C.1     1  LIG1        0.1198
     50 C          11.5876    8.1383   -0.0079 C.1     1  LIG1       -0.0681
     51 C          12.7857    8.2249   -0.0088 C.1     1  LIG1       -0.1139
     52 H          13.8529    8.3020   -0.0096 H       1  LIG1        0.1232
@<TRIPOS>BOND
     1    38    36    1
     2    35    32    1
     3    16    21    1
     4    33    32    1
     5    32    31    1
     6    32    34    1
     7    31    24    1
     8    29    24   ar
     9    29    28   ar
    10    24    25   ar
    11    52    51    1
    12    47    44    1
    13    51    50    3
    14    50    43    1
    15    44    43   ar
    16    44    45   ar
    17    43    42   ar
    18    45    40   ar
    19    46    42    1
    20    42    41   ar
    21    40    41   ar
    22    40    49    1
    23    41    28    1
    24    49    48    3
    25    28    27   ar
    26    14    13    1
    27    12     7    1
    28    25    20    1
    29    25    26   ar
    30     7     6   ar
    31     7     4   ar
    32    23    19    1
    33    20    19    2
    34    21    15    1
    35    19    18    1
    36    18    17    2
    37    18    22    1
    38    17     4    1
    39     6     8    1
    40     6     3   ar
    41     4     2   ar
    42     1     3   ar
    43     1     2   ar
    44     1    11    1
    45     3     9    1
    46     2     5    1
    47    11    10    3
    48    27    26   ar
    49    27    36    1
    50    26    30    1
    51    36    39    1
    52    36    37    1
