@<TRIPOS>MOLECULE
mol_data/noopt/geoms/mol2/4dl12ie(230)6ld(140)4da(280).out
 54 56 0 0 0
SMALL
GASTEIGER

@<TRIPOS>ATOM
      1 C           0.0509    0.0309    0.0002 C.ar    1  LIG1        0.0527
      2 C           1.4592    0.0309    0.0002 C.ar    1  LIG1       -0.0301
      3 C          -0.6045    1.2792    0.0002 C.ar    1  LIG1       -0.0409
      4 C           2.1849    1.2200   -0.0004 C.ar    1  LIG1        0.0607
      5 H           1.9850   -0.9213    0.0004 H       1  LIG1        0.0639
      6 C           0.1195    2.4666   -0.0004 C.ar    1  LIG1       -0.0180
      7 C           1.5181    2.4458   -0.0008 C.ar    1  LIG1        0.1314
      8 H          -0.4090    3.4165   -0.0003 H       1  LIG1        0.0655
      9 H          -1.9035    1.3287    0.0016 H       1  LIG1        0.0631
     10 N          -1.1192   -2.1177    0.0008 N.1     1  LIG1       -0.1909
     11 C          -0.5708   -1.1108    0.0005 C.1     1  LIG1        0.0992
     12 O           2.1896    3.5590   -0.0012 O.3     1  LIG1       -0.4879
     13 C           3.5904    3.2714   -0.0014 C.3     1  LIG1        0.1235
     14 H           4.1427    4.1879   -0.0019 H       1  LIG1        0.0731
     15 H           3.8386    2.7059    0.8724 H       1  LIG1        0.0731
     16 H           3.8381    2.7052   -0.8749 H       1  LIG1        0.0194
     17 C           3.4844    1.1831   -0.0005 C.ar    1  LIG1        0.1483
     18 C           4.4863    1.8242   -0.6992 C.ar    1  LIG1        0.0489
     19 C           5.7408    1.3054   -0.1952 C.ar    1  LIG1        0.0790
     20 C           5.4221    0.3814    0.7786 C.ar    1  LIG1        0.1567
     21 O           4.0368    0.2884    0.9171 O.2     1  LIG1       -0.4526
     22 C           4.3578    2.7213   -1.6317 C.3     2  LIG2       -0.0776
     23 H           3.4064    3.2016   -1.5359 H       1  LIG1        0.0194
     24 H           4.4251    2.2512   -2.5906 H       1  LIG1        0.0194
     25 H           5.1361    3.4492   -1.5359 H       1  LIG1        0.0194
     26 C           6.9244    1.6596   -0.5999 C.1     1  LIG1       -0.0652
     27 C           8.0180    1.9868   -0.9738 C.1     1  LIG1       -0.1138
     28 H           8.9921    2.2782   -1.3069 H       1  LIG1        0.1232
     29 C           6.0711   -1.7925    1.3878 C.ar    1  LIG1        0.2261
     30 C           6.0954   -0.3979    1.5719 C.ar    1  LIG1        0.0812
     31 C           6.8560    0.1230    2.6203 C.ar    1  LIG1       -0.0264
     32 C           7.5601   -0.7585    3.4423 C.ar    1  LIG1        0.0786
     33 C           7.4728   -2.1377    3.1783 C.ar    1  LIG1        0.0934
     34 N           6.7442   -2.6574    2.1712 N.ar    1  LIG1       -0.2110
     35 H           6.8984    1.2073    2.7957 H       1  LIG1        0.0640
     36 O           5.3777   -2.3249    0.4256 O.3     1  LIG1       -0.4792
     37 C           4.3023   -1.4511    0.0722 C.3     1  LIG1        0.0804
     38 H           3.7320   -1.8896   -0.7199 H       1  LIG1        0.0660
     39 H           3.6720   -1.2989    0.9235 H       1  LIG1        0.0660
     40 H           4.6979   -0.5111   -0.2512 H       1  LIG1        0.0660
     41 N           8.9192    0.0607    5.3044 N.1     1  LIG1       -0.1908
     42 C           8.2823   -0.3232    4.4318 C.1     1  LIG1        0.1013
     43 C           8.6899   -4.1382    3.3225 C.ar    1  LIG1        0.0610
     44 C           9.3683   -5.0407    4.1643 C.ar    1  LIG1       -0.0437
     45 C           8.1102   -2.9980    3.9156 C.ar    1  LIG1        0.0191
     46 C           9.4670   -4.8194    5.5361 C.ar    1  LIG1       -0.0605
     47 H           9.8228   -5.9271    3.7274 H       1  LIG1        0.0631
     48 C           8.2084   -2.7766    5.2850 C.ar    1  LIG1       -0.0513
     49 C           8.8869   -3.6846    6.1046 C.ar    1  LIG1       -0.0611
     50 H           7.7529   -1.8899    5.7185 H       1  LIG1        0.0624
     51 H          10.1008   -5.6734    6.2838 H       1  LIG1        0.0618
     52 N           8.5801   -4.6283    0.9280 N.1     1  LIG1       -0.1908
     53 C           8.6316   -4.3986    2.0502 C.1     1  LIG1        0.0998
     54 H           8.9753   -3.4725    7.3841 H       1  LIG1        0.0618
@<TRIPOS>BOND
     1    24    22    1
     2    22    25    1
     3    22    23    1
     4    22    16    1
     5    28    27    1
     6    27    26    3
     7    38    37    1
     8    18    19   ar
     9    18    17   ar
    10    26    19    1
    11    40    37    1
    12    19    20   ar
    13    14    13    1
    14    13    12    1
    15    13    15    1
    16    12     7    1
    17     7     4   ar
    18     7     6   ar
    19    17     4    1
    20    17    21   ar
    21     4     2   ar
    22     6     8    1
    23     6     3   ar
    24     1     2   ar
    25     1     3   ar
    26     1    11    1
    27     2     5    1
    28     3     9    1
    29    11    10    3
    30    37    36    1
    31    37    39    1
    32    36    29    1
    33    20    21   ar
    34    20    30    1
    35    52    53    3
    36    29    30   ar
    37    29    34   ar
    38    30    31   ar
    39    53    43    1
    40    34    33   ar
    41    31    35    1
    42    31    32   ar
    43    33    32   ar
    44    33    45    1
    45    43    45   ar
    46    43    44   ar
    47    32    42    1
    48    47    44    1
    49    45    48   ar
    50    44    46   ar
    51    42    41    3
    52    48    50    1
    53    48    49   ar
    54    46    49   ar
    55    46    51    1
    56    49    54    1
