@<TRIPOS>MOLECULE
mol_data/noopt/geoms/mol2/4dl13ed(170)13di(40)6ih(120).out
 54 56 0 0 0
SMALL
GASTEIGER

@<TRIPOS>ATOM
      1 C           0.0509    0.0309    0.0002 C.ar    1  LIG1        0.0526
      2 C           1.4592    0.0309    0.0002 C.ar    1  LIG1       -0.0315
      3 C          -0.6045    1.2792    0.0002 C.ar    1  LIG1       -0.0407
      4 C           2.1849    1.2200   -0.0004 C.ar    1  LIG1        0.0465
      5 H           1.9850   -0.9213    0.0004 H       1  LIG1        0.0638
      6 C           0.1195    2.4666   -0.0004 C.ar    1  LIG1       -0.0131
      7 C           1.5181    2.4458   -0.0008 C.ar    1  LIG1        0.1881
      8 H          -0.4090    3.4165   -0.0003 H       1  LIG1        0.0656
      9 H          -1.9035    1.3287    0.0016 H       1  LIG1        0.0631
     10 N          -1.1192   -2.1177    0.0008 N.1     1  LIG1       -0.1909
     11 C          -0.5708   -1.1108    0.0005 C.1     1  LIG1        0.0992
     12 O           2.1896    3.5590   -0.0012 O.3     1  LIG1       -0.2872
     13 C           3.5904    3.2714   -0.0014 C.3     1  LIG1       -0.0262
     14 H           4.1427    4.1879   -0.0019 H       1  LIG1        0.0265
     15 H           3.8386    2.7059    0.8724 H       1  LIG1        0.0359
     16 H           3.8381    2.7052   -0.8749 H       1  LIG1        0.0313
     17 C           3.4844    1.1831   -0.0005 C.ar    1  LIG1        0.0554
     18 C           4.3950    2.1787    0.1656 C.ar    1  LIG1       -0.0000
     19 C           5.6962    1.5878    0.0742 C.ar    1  LIG1        0.0825
     20 C           5.5235    0.2568   -0.1419 C.ar    1  LIG1        0.0825
     21 N           4.1709    0.0048   -0.1888 N.ar    1  LIG1       -0.3516
     22 H           3.7559   -0.8865   -0.3348 H       1  LIG1        0.1660
     23 C           4.1296    3.4351    0.3682 C.3     1  LIG1       -0.0020
     24 C           3.8843    4.5960    0.5554 C.3     2  LIG2       -0.0531
     25 H           3.6659    5.6301    0.7222 H       1  LIG1        0.0265
     26 N           7.8389    2.7522    0.2708 N.1     1  LIG1       -0.1908
     27 C           6.8347    2.2065    0.1787 C.1     1  LIG1        0.1016
     28 C           6.3975   -0.6937   -0.2928 C.ar    1  LIG1        0.0824
     29 C           6.4371   -1.9469    0.2324 C.ar    1  LIG1        0.0819
     30 C           7.6236   -2.5797   -0.2600 C.ar    1  LIG1       -0.0071
     31 C           8.2559   -1.6859   -1.0659 C.ar    1  LIG1        0.0529
     32 N           7.5089   -0.5298   -1.0883 N.ar    1  LIG1       -0.3517
     33 H           7.7357    0.2926   -1.5986 H       1  LIG1        0.1660
     34 N           4.7837   -2.9322    1.7428 N.1     1  LIG1       -0.1908
     35 C           5.5586   -2.4705    1.0350 C.1     1  LIG1        0.1016
     36 C           8.0252   -3.7864    0.0110 C.3     1  LIG1       -0.0365
     37 H           8.9311   -3.7418    0.5786 H       1  LIG1        0.0279
     38 H           8.2017   -4.3168   -0.9014 H       1  LIG1        0.0279
     39 H           7.2731   -4.2935    0.5786 H       1  LIG1        0.0279
     40 C           9.3684   -2.4035   -3.0064 C.ar    1  LIG1        0.0474
     41 C           9.3630   -1.7930   -1.7389 C.ar    1  LIG1        0.0213
     42 C          10.5681   -1.3085   -1.2270 C.ar    1  LIG1       -0.0287
     43 C          11.7277   -1.4491   -1.9913 C.ar    1  LIG1        0.0435
     44 C          11.6320   -2.0746   -3.2480 C.ar    1  LIG1        0.0485
     45 N          10.4777   -2.5476   -3.7572 N.ar    1  LIG1       -0.2577
     46 H          10.6031   -0.8263   -0.2398 H       1  LIG1        0.0643
     47 H          12.6836   -2.2288   -3.9965 H       1  LIG1        0.0848
     48 C           8.2712   -2.8700   -3.5254 C.3     1  LIG1       -0.0217
     49 H           8.1268   -3.8808   -3.2052 H       1  LIG1        0.0293
     50 H           8.3408   -2.8405   -4.5927 H       1  LIG1        0.0293
     51 H           7.4432   -2.2727   -3.2052 H       1  LIG1        0.0293
     52 N          12.8743   -1.0149   -1.5591 N.pl3   1  LIG1       -0.3568
     53 H          13.6040   -1.6116   -1.8929 H       1  LIG1        0.1424
     54 H          13.0257   -0.0845   -1.8929 H       1  LIG1        0.1424
@<TRIPOS>BOND
     1    50    48    1
     2    47    44    1
     3    45    44   ar
     4    45    40   ar
     5    48    51    1
     6    48    49    1
     7    48    40    1
     8    44    43   ar
     9    40    41   ar
    10    43    52    1
    11    43    42   ar
    12    54    52    1
    13    53    52    1
    14    41    42   ar
    15    41    31    1
    16    33    32    1
    17    42    46    1
    18    32    31   ar
    19    32    28   ar
    20    31    30   ar
    21    38    36    1
    22    16    13    1
    23    22    21    1
    24    28    20    1
    25    28    29   ar
    26    30    36    1
    27    30    29   ar
    28    21    20   ar
    29    21    17   ar
    30    20    19   ar
    31    14    24    1
    32    13    23    1
    33    12     7    1
    34     7     4   ar
    35     7     6   ar
    36    17     4    1
    37    17    18   ar
    38     4     2   ar
    39     6     8    1
    40     6     3   ar
    41     2     1   ar
    42     2     5    1
    43     3     1   ar
    44     3     9    1
    45     1    11    1
    46    11    10    3
    47    36    39    1
    48    36    37    1
    49    19    18   ar
    50    19    27    1
    51    18    23    1
    52    27    26    3
    53    29    35    1
    54    23    15    1
    55    24    25    1
    56    35    34    3
