@<TRIPOS>MOLECULE
mol_data/noopt/geoms/mol2/4dl13ha(170)13hl12ff(40).out
 50 51 0 0 0
SMALL
GASTEIGER

@<TRIPOS>ATOM
      1 C           0.0509    0.0309    0.0002 C.ar    1  LIG1        0.0526
      2 C           1.4592    0.0309    0.0002 C.ar    1  LIG1       -0.0317
      3 C          -0.6045    1.2792    0.0002 C.ar    1  LIG1       -0.0409
      4 C           2.1849    1.2200   -0.0004 C.ar    1  LIG1        0.0415
      5 H           1.9850   -0.9213    0.0004 H       1  LIG1        0.0638
      6 C           0.1195    2.4666   -0.0004 C.ar    1  LIG1       -0.0183
      7 C           1.5181    2.4458   -0.0008 C.ar    1  LIG1        0.1260
      8 H          -0.4090    3.4165   -0.0003 H       1  LIG1        0.0655
      9 H          -1.9035    1.3287    0.0016 H       1  LIG1        0.0631
     10 N          -1.1192   -2.1177    0.0008 N.1     1  LIG1       -0.1909
     11 C          -0.5708   -1.1108    0.0005 C.1     1  LIG1        0.0992
     12 O           2.1896    3.5590   -0.0012 O.3     1  LIG1       -0.5061
     13 C           3.5904    3.2714   -0.0014 C.3     1  LIG1        0.0385
     14 H           4.1427    4.1879   -0.0019 H       1  LIG1        0.1186
     15 H           3.8386    2.7059    0.8724 H       1  LIG1        0.1186
     16 H           3.8381    2.7052   -0.8749 H       1  LIG1        0.0490
     17 C           3.4844    1.1831   -0.0005 C.ar    1  LIG1        0.0584
     18 C           4.3950    2.1787    0.1656 C.ar    1  LIG1        0.0102
     19 C           5.6962    1.5878    0.0742 C.ar    1  LIG1       -0.0265
     20 C           5.5235    0.2568   -0.1419 C.ar    1  LIG1        0.0659
     21 N           4.1709    0.0048   -0.1888 N.ar    1  LIG1       -0.3524
     22 H           3.7559   -0.8865   -0.3348 H       1  LIG1        0.1660
     23 N           4.1296    3.4351    0.3682 N.3     1  LIG1       -0.3246
     24 H           4.8452    3.9979   -0.0455 H       2  UNK2        0.0000
     25 H           3.2475    3.6604   -0.0455 H       1  LIG1        0.2922
     26 H           6.8347    2.2065    0.1787 H       1  LIG1        0.0645
     27 C           6.3975   -0.6937   -0.2928 C.ar    1  LIG1        0.0880
     28 C           6.2303   -2.0400   -0.3790 C.ar    1  LIG1        0.0947
     29 C           7.5285   -2.6227   -0.5395 C.ar    1  LIG1        0.1696
     30 C           8.4317   -1.6067   -0.5461 C.ar    1  LIG1        0.1304
     31 N           7.7436   -0.4240   -0.3948 N.ar    1  LIG1       -0.3461
     32 H           8.1536    0.4810   -0.3647 H       1  LIG1        0.1662
     33 N           5.0988   -2.6776   -0.3238 N.pl3   1  LIG1       -0.3534
     34 H           4.3904   -2.1396   -0.7806 H       1  LIG1        0.1425
     35 H           5.1920   -3.5622   -0.7806 H       1  LIG1        0.1425
     36 O           7.7977   -3.8891   -0.6579 O.3     1  LIG1       -0.4910
     37 C           6.5779   -4.6342   -0.7014 C.3     1  LIG1        0.0790
     38 H           6.7999   -5.6764   -0.7990 H       1  LIG1        0.0660
     39 H           6.0271   -4.4699    0.2012 H       1  LIG1        0.0660
     40 H           5.9940   -4.3140   -1.5389 H       1  LIG1        0.0660
     41 C           9.7261   -1.6295   -0.6650 C.ar    1  LIG1        0.1995
     42 C          10.7439   -2.4270   -0.1843 C.ar    1  LIG1        0.2067
     43 C          11.9791   -1.8862   -0.7121 C.ar    1  LIG1        0.1977
     44 C          11.6340   -0.7936   -1.4807 C.ar    1  LIG1        0.1378
     45 O          10.2503   -0.6150   -1.4673 O.2     1  LIG1       -0.4538
     46 H          12.2822    0.0803   -2.1922 H       1  LIG1        0.1069
     47 O          10.6424   -3.4655    0.5912 O.3     1  LIG1       -0.5008
     48 H          11.5181   -3.8095    0.7823 H       1  LIG1        0.2924
     49 O          13.1696   -2.3586   -0.4890 O.3     1  LIG1       -0.5012
     50 H          13.7968   -1.6340   -0.4340 H       1  LIG1        0.2924
@<TRIPOS>BOND
     1    46    44    1
     2    40    37    1
     3    44    45   ar
     4    44    43   ar
     5    45    41   ar
     6    16    13    1
     7    38    37    1
     8    35    33    1
     9    34    33    1
    10    43    49    1
    11    43    42   ar
    12    37    36    1
    13    37    39    1
    14    41    30    1
    15    41    42   ar
    16    36    29    1
    17    30    29   ar
    18    30    31   ar
    19    29    28   ar
    20    49    50    1
    21    31    32    1
    22    31    27   ar
    23    28    33    1
    24    28    27   ar
    25    22    21    1
    26    27    20    1
    27    21    20   ar
    28    21    17   ar
    29    42    47    1
    30    20    19   ar
    31    25    12    1
    32    14    23    1
    33    13    23    1
    34    12     7    1
    35     7     4   ar
    36     7     6   ar
    37    17     4    1
    38    17    18   ar
    39     4     2   ar
    40     6     8    1
    41     6     3   ar
    42     1     3   ar
    43     1     2   ar
    44     1    11    1
    45     3     9    1
    46     2     5    1
    47    11    10    3
    48    19    18   ar
    49    19    26    1
    50    23    15    1
    51    47    48    1
