@<TRIPOS>MOLECULE
mol_data/noopt/geoms/mol2/4dl13aa(160)6he(210)4fe(160).out
 51 51 0 0 0
SMALL
GASTEIGER

@<TRIPOS>ATOM
      1 C           0.0509    0.0309    0.0002 C.ar    1  LIG1        0.0523
      2 C           1.4592    0.0309    0.0002 C.ar    1  LIG1       -0.0351
      3 C          -0.6045    1.2792    0.0002 C.ar    1  LIG1       -0.0407
      4 C           2.1849    1.2200   -0.0004 C.ar    1  LIG1        0.0310
      5 H           1.9850   -0.9213    0.0004 H       1  LIG1        0.0635
      6 C           0.1195    2.4666   -0.0004 C.ar    1  LIG1       -0.0134
      7 C           1.5181    2.4458   -0.0008 C.ar    1  LIG1        0.1846
      8 H          -0.4090    3.4165   -0.0003 H       1  LIG1        0.0656
      9 H          -1.9035    1.3287    0.0016 H       1  LIG1        0.0631
     10 N          -1.1192   -2.1177    0.0008 N.1     1  LIG1       -0.1909
     11 C          -0.5708   -1.1108    0.0005 C.1     1  LIG1        0.0992
     12 O           2.1896    3.5590   -0.0012 O.3     1  LIG1       -0.2875
     13 C           3.5904    3.2714   -0.0014 C.3     2  LIG2       -0.0681
     14 H           4.1427    4.1879   -0.0019 H       1  LIG1        0.0227
     15 H           3.8386    2.7059    0.8724 H       2  LIG2        0.0309
     16 H           3.8381    2.7052   -0.8749 H       1  LIG1        0.0227
     17 C           3.4844    1.1831   -0.0005 C.3     1  LIG1        0.1272
     18 C           4.3938    2.1384    0.3284 C.3     3  LIG3       -0.0309
     19 C           5.6957    1.5695    0.1488 C.3     1  LIG1        0.0172
     20 C           5.5245    0.2910   -0.2803 C.2     1  LIG1        0.0278
     21 N           4.1722    0.0504   -0.3735 N.2     1  LIG1       -0.3729
     22 H           3.7581   -0.8055   -0.6634 H       1  LIG1        0.1604
     23 H           4.1271    3.3457    0.7301 H       1  LIG1        0.0227
     24 H           6.8335    2.1628    0.3570 H       1  LIG1        0.0376
     25 C           6.2148   -1.9507   -0.1517 C.ar    1  LIG1        0.1258
     26 C           6.3995   -0.6229   -0.5787 C.ar    1  LIG1        0.0349
     27 C           7.5380   -0.3151   -1.3257 C.ar    1  LIG1       -0.0322
     28 C           8.4457   -1.3345   -1.6182 C.ar    1  LIG1        0.0515
     29 C           8.1735   -2.6318   -1.1466 C.ar    1  LIG1        0.0920
     30 N           7.0801   -2.9464   -0.4249 N.ar    1  LIG1       -0.2304
     31 H           7.7168    0.7114   -1.6758 H       1  LIG1        0.0638
     32 N           5.1705   -2.2863    0.5460 N.pl3   1  LIG1       -0.3426
     33 H           4.4120   -1.6724    0.3272 H       1  LIG1        0.1437
     34 H           4.9116   -3.2271    0.3272 H       1  LIG1        0.1437
     35 C           9.5208   -1.0990   -2.3101 C.1     1  LIG1       -0.0675
     36 C          10.5141   -0.8814   -2.9495 C.1     1  LIG1       -0.1138
     37 H          11.3990   -0.6875   -3.5189 H       1  LIG1        0.1232
     38 C          10.3635   -3.4725   -1.1167 C.ar    1  LIG1        0.1261
     39 C          11.2048   -4.5649   -1.4031 C.ar    1  LIG1       -0.0184
     40 C           8.9883   -3.6142   -1.3932 C.ar    1  LIG1        0.0442
     41 C          10.7012   -5.7474   -1.9405 C.ar    1  LIG1       -0.0429
     42 H          12.2693   -4.4768   -1.1976 H       1  LIG1        0.0655
     43 C           8.4850   -4.7944   -1.9297 C.ar    1  LIG1       -0.0336
     44 C           9.3369   -5.8687   -2.2070 C.ar    1  LIG1        0.0255
     45 H           7.4208   -4.8791   -2.1342 H       1  LIG1        0.0637
     46 H          11.5066   -6.7362   -2.1926 H       1  LIG1        0.0631
     47 O          10.8918   -2.3954   -0.6157 O.3     1  LIG1       -0.5061
     48 H          10.2096   -1.7314   -0.4922 H       1  LIG1        0.2922
     49 C           8.8608   -6.9694   -2.7086 C.1     1  LIG1       -0.0696
     50 C           8.4208   -7.9865   -3.1721 C.1     1  LIG1       -0.1139
     51 H           8.0290   -8.8925   -3.5850 H       1  LIG1        0.1232
@<TRIPOS>BOND
     1    51    50    1
     2    37    36    1
     3    50    49    3
     4    36    35    3
     5    49    44    1
     6    35    28    1
     7    44    41   ar
     8    44    43   ar
     9    46    41    1
    10    45    43    1
    11    41    39   ar
    12    43    40   ar
    13    31    27    1
    14    28    27   ar
    15    28    29   ar
    16    39    42    1
    17    39    38   ar
    18    40    29    1
    19    40    38   ar
    20    27    26   ar
    21    29    30   ar
    22    38    47    1
    23    16    13    1
    24    22    21    1
    25    47    48    1
    26    26    20    1
    27    26    25   ar
    28    30    25   ar
    29    21    20    2
    30    21    17    1
    31    20    19    1
    32    25    32    1
    33    14    13    1
    34    13    23    1
    35    12     7    1
    36     7     4   ar
    37     7     6   ar
    38    17     4    1
    39     4     2   ar
    40     6     8    1
    41     6     3   ar
    42     2     1   ar
    43     2     5    1
    44     3     1   ar
    45     3     9    1
    46     1    11    1
    47    11    10    3
    48    19    24    1
    49    34    32    1
    50    33    32    1
    51    18    15    1
