@<TRIPOS>MOLECULE
mol_data/noopt/geoms/mol2/4dl12ll(150)6if(130)4fd(70).out
 57 58 0 0 0
SMALL
GASTEIGER

@<TRIPOS>ATOM
      1 C           0.0509    0.0309    0.0002 C.ar    1  LIG1        0.0527
      2 C           1.4592    0.0309    0.0002 C.ar    1  LIG1       -0.0299
      3 C          -0.6045    1.2792    0.0002 C.ar    1  LIG1       -0.0407
      4 C           2.1849    1.2200   -0.0004 C.ar    1  LIG1        0.0689
      5 H           1.9850   -0.9213    0.0004 H       1  LIG1        0.0639
      6 C           0.1195    2.4666   -0.0004 C.ar    1  LIG1       -0.0130
      7 C           1.5181    2.4458   -0.0008 C.ar    1  LIG1        0.1898
      8 H          -0.4090    3.4165   -0.0003 H       1  LIG1        0.0656
      9 H          -1.9035    1.3287    0.0016 H       1  LIG1        0.0631
     10 N          -1.1192   -2.1177    0.0008 N.1     1  LIG1       -0.1909
     11 C          -0.5708   -1.1108    0.0005 C.1     1  LIG1        0.0992
     12 O           2.1896    3.5590   -0.0012 O.3     1  LIG1       -0.2872
     13 C           3.5904    3.2714   -0.0014 C.3     2  LIG2       -0.0531
     14 H           4.1427    4.1879   -0.0019 H       1  LIG1        0.0265
     15 H           3.8386    2.7059    0.8724 H       1  LIG1        0.2924
     16 H           3.8381    2.7052   -0.8749 H       1  LIG1        0.0265
     17 C           3.4844    1.1831   -0.0005 C.ar    1  LIG1        0.1844
     18 C           4.4919    2.0182    0.4361 C.ar    1  LIG1        0.2061
     19 C           5.7424    1.3594    0.1209 C.ar    1  LIG1        0.2084
     20 C           5.4158    0.1650   -0.4876 C.ar    1  LIG1        0.1827
     21 O           4.0294    0.0334   -0.5738 O.2     1  LIG1       -0.4471
     22 O           4.3709    3.1741    1.0186 O.3     1  LIG1       -0.5008
     23 C           5.6671    3.7388    1.2324 C.3     3  LIG3       -0.0681
     24 H           5.5671    4.6902    1.7117 H       2  LIG2        0.0227
     25 H           6.2429    3.0851    1.8539 H       2  LIG2        0.0227
     26 H           6.1614    3.8636    0.2917 H       2  LIG2        0.0227
     27 O           6.9292    1.8259    0.3737 O.3     1  LIG1       -0.4884
     28 C           7.8580    0.7426    0.4664 C.3     1  LIG1        0.0791
     29 H           8.8347    1.1270    0.6743 H       1  LIG1        0.0660
     30 H           7.5592    0.0830    1.2542 H       1  LIG1        0.0660
     31 H           7.8752    0.2072   -0.4598 H       1  LIG1        0.0660
     32 C           5.6015   -1.5198   -2.1141 C.ar    1  LIG1        0.0499
     33 C           6.0828   -0.8347   -0.9834 C.ar    1  LIG1        0.0455
     34 C           7.2862   -1.2530   -0.4126 C.ar    1  LIG1       -0.0055
     35 C           7.9622   -2.3319   -0.9849 C.ar    1  LIG1        0.1435
     36 C           7.4004   -2.9531   -2.1154 C.ar    1  LIG1        0.1161
     37 N           6.2406   -2.5624   -2.6791 N.ar    1  LIG1       -0.2474
     38 H           7.6931   -0.7428    0.4720 H       1  LIG1        0.0662
     39 C           4.4857   -1.1673   -2.6811 C.3     1  LIG1       -0.0216
     40 H           3.7067   -1.8374   -2.3827 H       1  LIG1        0.0293
     41 H           4.5991   -1.2032   -3.7445 H       1  LIG1        0.0293
     42 H           4.2331   -0.1713   -2.3827 H       1  LIG1        0.0293
     43 O           9.0860   -2.7596   -0.4907 O.3     1  LIG1       -0.5046
     44 H           9.6848   -2.0192   -0.3688 H       1  LIG1        0.2922
     45 C           8.2065   -5.1506   -1.9578 C.ar    1  LIG1        0.1262
     46 C           8.8533   -6.2132   -2.6181 C.ar    1  LIG1       -0.0183
     47 C           7.9923   -3.9612   -2.6839 C.ar    1  LIG1        0.0465
     48 C           9.2687   -6.0990   -3.9428 C.ar    1  LIG1       -0.0409
     49 H           9.0288   -7.1399   -2.0763 H       1  LIG1        0.0655
     50 C           8.4067   -3.8467   -4.0065 C.ar    1  LIG1       -0.0315
     51 C           9.0472   -4.9137   -4.6451 C.ar    1  LIG1        0.0526
     52 H           8.2301   -2.9191   -4.5450 H       1  LIG1        0.0638
     53 H           9.8628   -7.1001   -4.5216 H       1  LIG1        0.0631
     54 O           7.8419   -5.3170   -0.7211 O.3     1  LIG1       -0.5061
     55 H           8.1277   -6.1813   -0.4163 H       1  LIG1        0.2922
     56 N           9.7725   -4.7012   -6.9720 N.1     1  LIG1       -0.1909
     57 C           9.4326   -4.8008   -5.8815 C.1     1  LIG1        0.0992
@<TRIPOS>BOND
     1    56    57    3
     2    57    51    1
     3    51    50   ar
     4    51    48   ar
     5    52    50    1
     6    53    48    1
     7    50    47   ar
     8    48    46   ar
     9    41    39    1
    10    47    36    1
    11    47    45   ar
    12    39    42    1
    13    39    40    1
    14    39    32    1
    15    37    36   ar
    16    37    32   ar
    17    46    49    1
    18    46    45   ar
    19    36    35   ar
    20    32    33   ar
    21    45    54    1
    22    35    43    1
    23    35    34   ar
    24    33    20    1
    25    33    34   ar
    26    16    13    1
    27    54    55    1
    28    21    20   ar
    29    21    17   ar
    30    43    44    1
    31    20    19   ar
    32    31    28    1
    33    34    38    1
    34    14    13    1
    35    12     7    1
    36     7     6   ar
    37     7     4   ar
    38    17     4    1
    39    17    18   ar
    40     6     8    1
    41     6     3   ar
    42     4     2   ar
    43     1     2   ar
    44     1     3   ar
    45     1    11    1
    46     2     5    1
    47     3     9    1
    48    11    10    3
    49    19    27    1
    50    19    18   ar
    51    26    23    1
    52    27    28    1
    53    18    22    1
    54    28    29    1
    55    28    30    1
    56    15    22    1
    57    23    24    1
    58    23    25    1
