@<TRIPOS>MOLECULE
mol_data/noopt/geoms/mol2/4dl13fd(100)12af(120)12ad(30).out
 43 46 0 0 0
SMALL
GASTEIGER

@<TRIPOS>ATOM
      1 C           0.0509    0.0309    0.0002 C.ar    1  LIG1        0.0526
      2 C           1.4592    0.0309    0.0002 C.ar    1  LIG1       -0.0316
      3 C          -0.6045    1.2792    0.0002 C.ar    1  LIG1       -0.0409
      4 C           2.1849    1.2200   -0.0004 C.ar    1  LIG1        0.0448
      5 H           1.9850   -0.9213    0.0004 H       1  LIG1        0.0638
      6 C           0.1195    2.4666   -0.0004 C.ar    1  LIG1       -0.0181
      7 C           1.5181    2.4458   -0.0008 C.ar    1  LIG1        0.1294
      8 H          -0.4090    3.4165   -0.0003 H       1  LIG1        0.0655
      9 H          -1.9035    1.3287    0.0016 H       1  LIG1        0.0631
     10 N          -1.1192   -2.1177    0.0008 N.1     1  LIG1       -0.1909
     11 C          -0.5708   -1.1108    0.0005 C.1     1  LIG1        0.0992
     12 O           2.1896    3.5590   -0.0012 O.3     1  LIG1       -0.4945
     13 C           3.5904    3.2714   -0.0014 C.3     1  LIG1        0.0788
     14 H           4.1427    4.1879   -0.0019 H       1  LIG1        0.0660
     15 H           3.8386    2.7059    0.8724 H       1  LIG1        0.0660
     16 H           3.8381    2.7052   -0.8749 H       1  LIG1        0.0660
     17 C           3.4844    1.1831   -0.0005 C.ar    1  LIG1        0.0939
     18 C           4.3716    1.3522    1.0155 C.ar    1  LIG1        0.1603
     19 C           5.6855    1.2106    0.4640 C.ar    1  LIG1        0.1219
     20 C           5.5434    0.9595   -0.8645 C.ar    1  LIG1        0.1039
     21 N           4.1974    0.9422   -1.1532 N.ar    1  LIG1       -0.3477
     22 H           3.8031    0.7809   -2.0512 H       1  LIG1        0.1661
     23 O           4.0775    1.5985    2.2577 O.3     1  LIG1       -0.5034
     24 H           3.4239    0.9656    2.5638 H       1  LIG1        0.2923
     25 N           7.8002    1.3860    1.6818 N.1     1  LIG1       -0.1907
     26 C           6.8091    1.3038    1.1110 C.1     1  LIG1        0.1051
     27 C           6.4386    0.7582   -1.7854 C.ar    1  LIG1        0.1569
     28 C           7.7909    0.9999   -1.9119 C.ar    1  LIG1        0.0280
     29 C           8.1774    0.5192   -3.2220 C.ar    1  LIG1        0.1664
     30 C           7.0351    0.0154   -3.8095 C.ar    1  LIG1        0.2117
     31 O           5.9498    0.1513   -2.9432 O.2     1  LIG1       -0.4464
     32 H           8.5857    1.5494   -1.0422 H       1  LIG1        0.0693
     33 O           9.3762    0.5657   -3.7229 O.3     1  LIG1       -0.5031
     34 H           9.6365    1.4815   -3.8463 H       1  LIG1        0.2923
     35 C           6.7473   -0.5395   -4.9493 C.ar    1  LIG1        0.1746
     36 C           5.5869   -0.9015   -5.6016 C.ar    1  LIG1        0.0048
     37 C           5.9861   -1.4847   -6.8654 C.ar    1  LIG1        0.0901
     38 C           7.3646   -1.4403   -6.9017 C.ar    1  LIG1        0.1100
     39 O           7.8572   -0.8617   -5.7315 O.2     1  LIG1       -0.4584
     40 H           8.2811   -1.8025   -7.7496 H       1  LIG1        0.1043
     41 H           4.3632   -0.7589   -5.1865 H       1  LIG1        0.0669
     42 N           4.4698   -2.3641   -8.5723 N.1     1  LIG1       -0.1908
     43 C           5.1804   -1.9520   -7.7724 C.1     1  LIG1        0.1023
@<TRIPOS>BOND
     1    42    43    3
     2    43    37    1
     3    40    38    1
     4    38    37   ar
     5    38    39   ar
     6    37    36   ar
     7    39    35   ar
     8    36    41    1
     9    36    35   ar
    10    35    30    1
    11    34    33    1
    12    30    29   ar
    13    30    31   ar
    14    33    29    1
    15    29    28   ar
    16    31    27   ar
    17    22    21    1
    18    28    27   ar
    19    28    32    1
    20    27    20    1
    21    21    20   ar
    22    21    17   ar
    23    16    13    1
    24    20    19   ar
    25    14    13    1
    26    13    12    1
    27    13    15    1
    28    12     7    1
    29     7     4   ar
    30     7     6   ar
    31    17     4    1
    32    17    18   ar
    33     4     2   ar
    34     6     8    1
    35     6     3   ar
    36     2     1   ar
    37     2     5    1
    38     3     1   ar
    39     3     9    1
    40     1    11    1
    41    11    10    3
    42    19    18   ar
    43    19    26    1
    44    18    23    1
    45    26    25    3
    46    23    24    1
