@<TRIPOS>MOLECULE
mol_data/noopt/geoms/mol2/4dl6fa(250)13ah(160)12ae(160).out
 46 49 0 0 0
SMALL
GASTEIGER

@<TRIPOS>ATOM
      1 C           0.0509    0.0309    0.0002 C.ar    1  LIG1        0.0526
      2 C           1.4592    0.0309    0.0002 C.ar    1  LIG1       -0.0330
      3 C          -0.6045    1.2792    0.0002 C.ar    1  LIG1       -0.0409
      4 C           2.1849    1.2200   -0.0004 C.ar    1  LIG1        0.0301
      5 H           1.9850   -0.9213    0.0004 H       1  LIG1        0.0638
      6 C           0.1195    2.4666   -0.0004 C.ar    1  LIG1       -0.0181
      7 C           1.5181    2.4458   -0.0008 C.ar    1  LIG1        0.1280
      8 H          -0.4090    3.4165   -0.0003 H       1  LIG1        0.0655
      9 H          -1.9035    1.3287    0.0016 H       1  LIG1        0.0631
     10 N          -1.1192   -2.1177    0.0008 N.1     1  LIG1       -0.1909
     11 C          -0.5708   -1.1108    0.0005 C.1     1  LIG1        0.0992
     12 O           2.1896    3.5590   -0.0012 O.3     1  LIG1       -0.4945
     13 C           3.5904    3.2714   -0.0014 C.3     1  LIG1        0.0788
     14 H           4.1427    4.1879   -0.0019 H       1  LIG1        0.0660
     15 H           3.8386    2.7059    0.8724 H       1  LIG1        0.0660
     16 H           3.8381    2.7052   -0.8749 H       1  LIG1        0.0660
     17 C           4.1835    0.7474    1.1400 C.ar    1  LIG1        0.2209
     18 C           3.4844    1.1831   -0.0005 C.ar    1  LIG1        0.0471
     19 C           4.2170    1.5715   -1.1237 C.ar    1  LIG1       -0.0468
     20 C           5.6106    1.5123   -1.0703 C.ar    1  LIG1       -0.0334
     21 C           6.2188    1.0627    0.1161 C.ar    1  LIG1        0.0910
     22 N           5.5274    0.6840    1.2088 N.ar    1  LIG1       -0.2110
     23 H           3.7056    1.9185   -2.0327 H       1  LIG1        0.0626
     24 O           3.5457    0.3756    2.2100 O.3     1  LIG1       -0.4920
     25 H           3.8442   -0.4979    2.4738 H       1  LIG1        0.2937
     26 H           6.3377    1.8630   -2.0894 H       1  LIG1        0.0640
     27 C           7.5130    0.9899    0.2143 C.ar    1  LIG1        0.0674
     28 C           8.4213    1.9211    0.6089 C.ar    1  LIG1       -0.0135
     29 C           9.7166    1.3157    0.5295 C.ar    1  LIG1        0.0539
     30 C           9.5427    0.0405    0.0914 C.ar    1  LIG1        0.1035
     31 N           8.1952   -0.1630   -0.1032 N.ar    1  LIG1       -0.3491
     32 H           7.7805   -1.0083   -0.4218 H       1  LIG1        0.1661
     33 H           8.1587    3.1370    0.9867 H       1  LIG1        0.0658
     34 N          10.8516    1.8782    0.8218 N.pl3   1  LIG1       -0.3562
     35 H          11.6001    1.3379    0.4375 H       1  LIG1        0.1424
     36 H          10.8750    2.8010    0.4374 H       1  LIG1        0.1424
     37 C          10.4119   -0.8985   -0.1380 C.ar    1  LIG1        0.1539
     38 C          11.7811   -1.0207   -0.0223 C.ar    1  LIG1        0.0011
     39 C          12.1159   -2.3615   -0.4549 C.ar    1  LIG1        0.0630
     40 C          10.9285   -2.9699   -0.8064 C.ar    1  LIG1        0.1080
     41 O           9.8635   -2.0880   -0.6196 O.2     1  LIG1       -0.4602
     42 H          10.5852   -4.1398   -1.2575 H       1  LIG1        0.1042
     43 H          12.6279   -0.1250    0.3908 H       1  LIG1        0.0668
     44 C          13.3124   -2.8683   -0.4944 C.1     1  LIG1       -0.0665
     45 C          14.4180   -3.3366   -0.5309 C.1     1  LIG1       -0.1138
     46 H          15.4028   -3.7537   -0.5633 H       1  LIG1        0.1232
@<TRIPOS>BOND
     1    26    20    1
     2    23    19    1
     3    42    40    1
     4    19    20   ar
     5    19    18   ar
     6    20    21   ar
     7    16    13    1
     8    40    41   ar
     9    40    39   ar
    10    41    37   ar
    11    46    45    1
    12    45    44    3
    13    44    39    1
    14    39    38   ar
    15    32    31    1
    16    37    38   ar
    17    37    30    1
    18    31    30   ar
    19    31    27   ar
    20    38    43    1
    21    14    13    1
    22    13    12    1
    23    13    15    1
    24    12     7    1
    25     7     6   ar
    26     7     4   ar
    27    18     4    1
    28    18    17   ar
    29     6     8    1
    30     6     3   ar
    31     4     2   ar
    32     1     2   ar
    33     1     3   ar
    34     1    11    1
    35     2     5    1
    36     3     9    1
    37    11    10    3
    38    30    29   ar
    39    21    27    1
    40    21    22   ar
    41    27    28   ar
    42    36    34    1
    43    35    34    1
    44    29    28   ar
    45    29    34    1
    46    28    33    1
    47    17    22   ar
    48    17    24    1
    49    24    25    1
