@<TRIPOS>MOLECULE
mol_data/noopt/geoms/mol2/4ea13li6fl13lf-.out
 56 53 0 0 0
SMALL
GASTEIGER

@<TRIPOS>ATOM
      1 C           0.0509    0.0309    0.0002 C.2     1  LIG1        0.0364
      2 C           1.4592    0.0309    0.0002 C.3     2  LIG2        0.0000
      3 C          -0.6045    1.2792    0.0002 C.2     1  LIG1       -0.0597
      4 C           2.1849    1.2200   -0.0004 C.2     1  LIG1        0.0077
      5 H           1.9850   -0.9213    0.0004 H       2  LIG2        0.0194
      6 C           0.1195    2.4666   -0.0004 C.3     1  LIG1        0.0073
      7 C           1.5181    2.4458   -0.0008 C.2     1  LIG1       -0.0664
      8 H          -0.4090    3.4165   -0.0003 H       1  LIG1        0.0395
      9 H          -1.9035    1.3287    0.0016 H       1  LIG1        0.0591
     10 C          -0.5708   -1.1108    0.0005 C.1     1  LIG1       -0.0687
     11 C          -1.1453   -2.1657    0.0008 C.1     1  LIG1       -0.1139
     12 H          -1.6571   -3.1054    0.0010 H       1  LIG1        0.1232
     13 H           2.1896    3.5590   -0.0012 H       1  LIG1        0.0585
     14 C           3.4844    1.1831   -0.0005 C.ar    1  LIG1        0.0948
     15 C           4.3366    0.1240   -0.0009 C.ar    1  LIG1        0.2075
     16 C           5.6695    0.6476    0.0003 C.ar    1  LIG1        0.0220
     17 C           5.5731    2.0036   -0.0004 C.ar    1  LIG1        0.0541
     18 N           4.2371    2.3357   -0.0004 N.ar    1  LIG1       -0.3510
     19 H           3.8737    3.2609   -0.0009 H       1  LIG1        0.1660
     20 O           3.9998   -1.1317   -0.0008 O.3     1  LIG1       -0.2854
     21 C           2.5742   -1.2434   -0.0009 C.3     3  LIG3       -0.0776
     22 H           2.2975   -2.2770   -0.0009 H       2  LIG2        0.0194
     23 H           2.1792   -0.7685    0.8729 H       2  LIG2        0.0194
     24 H           2.1792   -0.7684   -0.8744 H       2  LIG2        0.0194
     25 C           6.7711   -0.0432    0.0013 C.3     1  LIG1       -0.0340
     26 H           7.5371    0.5076    0.5060 H       1  LIG1        0.0279
     27 H           7.0740   -0.2331   -1.0072 H       1  LIG1        0.0279
     28 H           6.6087   -0.9727    0.5060 H       1  LIG1        0.0279
     29 C           6.1558    4.2793    0.0005 C.3     1  LIG1        0.2407
     30 C           6.5000    2.9152    0.0001 C.2     1  LIG1        0.0317
     31 C           7.8524    2.5688    0.0005 C.2     1  LIG1       -0.0653
     32 C           8.8069    3.5873    0.0012 C.3     1  LIG1        0.0218
     33 C           8.3640    4.9227    0.0013 C.2     1  LIG1        0.1162
     34 N           7.0635    5.2748    0.0011 N.2     1  LIG1       -0.2363
     35 H           8.1596    1.5134   -0.0008 H       1  LIG1        0.0583
     36 O           4.9102    4.6515    0.0003 O.3     1  LIG1       -0.3607
     37 H           4.3441    3.8762    0.0002 H       1  LIG1        0.2128
     38 O          10.0785    3.3167    0.0014 O.3     4  HOH4       -0.4105
     39 C          10.2648    1.8989    0.0014 C.3     5  LIG5       -0.0681
     40 H          11.3114    1.6766    0.0014 H       3  LIG3        0.0227
     41 H           9.8111    1.4796    0.8751 H       3  LIG3        0.0227
     42 H           9.8111    1.4796   -0.8722 H       3  LIG3        0.0227
     43 C           9.2145    5.9060    0.0020 C.ar    1  LIG1        0.1128
     44 C          10.5738    5.8963    0.0021 C.ar    1  LIG1        0.1892
     45 C          11.0112    7.2599    0.0041 C.ar    1  LIG1        0.1769
     46 C           9.8999    8.0428    0.0034 C.ar    1  LIG1        0.0480
     47 N           8.7977    7.2180    0.0026 N.ar    1  LIG1       -0.3534
     48 H           7.8512    7.5216    0.0018 H       1  LIG1        0.1656
     49 H           9.7800    9.3373    0.0044 H       1  LIG1        0.0845
     50 O          11.3335    4.8413    0.0020 O.3     1  LIG1       -0.4753
     51 C          10.5184    3.6663    0.0019 C.3     1  LIG1        0.1808
     52 H          11.1440    2.7982    0.0017 H       1  LIG1        0.0811
     53 H           9.9008    3.6605    0.8757 H       0  HOH0        0.2052
     54 H           9.9006    3.6608   -0.8716 H       0  HOH0        0.2052
     55 O          12.2428    7.6762    0.0058 O.3     1  LIG1       -0.5023
     56 H          12.2566    8.6361    0.0062 H       1  LIG1        0.2923
@<TRIPOS>BOND
     1    27    25    1
     2    24    21    1
     3    42    39    1
     4    54    38    1
     5    13     7    1
     6    22    21    1
     7    15    20    1
     8    15    14   ar
     9    15    16   ar
    10    19    18    1
    11    21     5    1
    12    21    23    1
    13     7     6    1
    14     7     4    2
    15    35    31    1
    16    14     4    1
    17    14    18   ar
    18     6     8    1
    19     6     3    1
    20    18    17   ar
    21    17    30    1
    22    17    16   ar
    23    30    29    1
    24    30    31    2
    25    37    36    1
    26     1     3    2
    27     1    10    1
    28     3     9    1
    29    36    29    1
    30    16    25    1
    31    10    11    3
    32    29    34    1
    33    31    32    1
    34    11    12    1
    35    34    33    2
    36    25    28    1
    37    25    26    1
    38    33    43    1
    39    38    53    1
    40    39    40    1
    41    39    41    1
    42    52    51    1
    43    48    47    1
    44    51    50    1
    45    43    44   ar
    46    43    47   ar
    47    50    44    1
    48    44    45   ar
    49    47    46   ar
    50    46    45   ar
    51    46    49    1
    52    45    55    1
    53    55    56    1
