@<TRIPOS>MOLECULE
mol_data/noopt/geoms/mol2/4ea13dd-6aa-13fh-.out
 44 47 0 0 0
SMALL
GASTEIGER

@<TRIPOS>ATOM
      1 C           0.0509    0.0309    0.0002 C.ar    1  LIG1        0.0253
      2 C           1.4592    0.0309    0.0002 C.ar    1  LIG1       -0.0372
      3 C          -0.6045    1.2792    0.0002 C.ar    1  LIG1       -0.0463
      4 C           2.1849    1.2200   -0.0004 C.ar    1  LIG1        0.0008
      5 H           1.9850   -0.9213    0.0004 H       1  LIG1        0.0636
      6 C           0.1195    2.4666   -0.0004 C.ar    1  LIG1       -0.0600
      7 C           1.5181    2.4458   -0.0008 C.ar    1  LIG1       -0.0525
      8 H          -0.4090    3.4165   -0.0003 H       1  LIG1        0.0618
      9 H          -1.9035    1.3287    0.0016 H       1  LIG1        0.0630
     10 C          -0.5708   -1.1108    0.0005 C.1     1  LIG1       -0.0696
     11 C          -1.1453   -2.1657    0.0008 C.1     1  LIG1       -0.1139
     12 H          -1.6571   -3.1054    0.0010 H       1  LIG1        0.1232
     13 H           2.1896    3.5590   -0.0012 H       1  LIG1        0.0624
     14 C           3.4844    1.1831   -0.0005 C.ar    1  LIG1        0.0658
     15 C           4.3366    0.1241    0.0157 C.ar    1  LIG1        0.0949
     16 C           5.6695    0.6477    0.0079 C.ar    1  LIG1        0.0949
     17 C           5.5731    2.0035   -0.0145 C.ar    1  LIG1        0.0672
     18 N           4.2371    2.3356   -0.0192 N.ar    1  LIG1       -0.3521
     19 H           3.8736    3.2606   -0.0344 H       1  LIG1        0.1660
     20 N           3.7029   -2.2386    0.0541 N.1     1  LIG1       -0.1908
     21 C           3.9999   -1.1313    0.0361 C.1     1  LIG1        0.1026
     22 N           7.7422   -0.6520    0.0298 N.1     1  LIG1       -0.1908
     23 C           6.7708   -0.0429    0.0195 C.1     1  LIG1        0.1026
     24 C           6.1558    4.2788   -0.0580 C.ar    1  LIG1        0.0374
     25 C           6.5000    2.9149   -0.0291 C.ar    1  LIG1        0.0177
     26 C           7.8524    2.5687   -0.0161 C.ar    1  LIG1       -0.0491
     27 C           8.8069    3.5872   -0.0327 C.ar    1  LIG1       -0.0335
     28 C           8.3640    4.9223   -0.0617 C.ar    1  LIG1        0.0907
     29 N           7.0635    5.2741   -0.0743 N.ar    1  LIG1       -0.2527
     30 H           8.1596    1.5135    0.0055 H       1  LIG1        0.0625
     31 H           4.9103    4.6508   -0.0709 H       1  LIG1        0.0836
     32 H          10.0784    3.3167   -0.0218 H       1  LIG1        0.0640
     33 C           9.2144    5.9054   -0.0778 C.ar    1  LIG1        0.1088
     34 C          10.5737    5.8955   -0.0892 C.ar    1  LIG1        0.1643
     35 C          11.0112    7.2590   -0.1042 C.ar    1  LIG1        0.0849
     36 C           9.8999    8.0421   -0.1032 C.ar    1  LIG1        0.0267
     37 N           8.7977    7.2174   -0.0866 N.ar    1  LIG1       -0.3549
     38 H           7.8513    7.5211   -0.0823 H       1  LIG1        0.1655
     39 H           9.7801    9.3365   -0.1138 H       1  LIG1        0.0827
     40 O          11.3333    4.8405   -0.0853 O.3     1  LIG1       -0.5031
     41 H          12.2550    5.1092   -0.0844 H       1  LIG1        0.2923
     42 N          12.2427    7.6752   -0.1170 N.pl3   1  LIG1       -0.3540
     43 H          12.8155    7.0069   -0.5917 H       1  LIG1        0.1425
     44 H          12.2927    8.5539   -0.5917 H       1  LIG1        0.1425
@<TRIPOS>BOND
     1    44    42    1
     2    43    42    1
     3    42    35    1
     4    39    36    1
     5    35    36   ar
     6    35    34   ar
     7    36    37   ar
     8    34    40    1
     9    34    33   ar
    10    37    38    1
    11    37    33   ar
    12    40    41    1
    13    33    28    1
    14    29    28   ar
    15    29    24   ar
    16    31    24    1
    17    28    27   ar
    18    24    25   ar
    19    19    18    1
    20    27    32    1
    21    27    26   ar
    22    25    26   ar
    23    25    17    1
    24    18    17   ar
    25    18    14   ar
    26    26    30    1
    27    17    16   ar
    28    13     7    1
    29     7     6   ar
    30     7     4   ar
    31    14     4    1
    32    14    15   ar
    33     6     8    1
    34     6     3   ar
    35     4     2   ar
    36     1     3   ar
    37     1     2   ar
    38     1    10    1
    39     3     9    1
    40     2     5    1
    41    10    11    3
    42    11    12    1
    43    16    15   ar
    44    16    23    1
    45    15    21    1
    46    23    22    3
    47    21    20    3
