@<TRIPOS>MOLECULE
mol_data/noopt/geoms/mol2/4ea13ff12ih-12lh-.out
 49 48 0 0 0
SMALL
GASTEIGER

@<TRIPOS>ATOM
      1 C           0.0509    0.0309    0.0002 C.ar    1  LIG1        0.0253
      2 C           1.4592    0.0309    0.0002 C.ar    1  LIG1       -0.0371
      3 C          -0.6045    1.2792    0.0002 C.ar    1  LIG1       -0.0463
      4 C           2.1849    1.2200   -0.0004 C.ar    1  LIG1        0.0032
      5 H           1.9850   -0.9213    0.0004 H       1  LIG1        0.0636
      6 C           0.1195    2.4666   -0.0004 C.ar    1  LIG1       -0.0600
      7 C           1.5181    2.4458   -0.0008 C.ar    1  LIG1       -0.0524
      8 H          -0.4090    3.4165   -0.0003 H       1  LIG1        0.0618
      9 H          -1.9035    1.3287    0.0016 H       1  LIG1        0.0630
     10 C          -0.5708   -1.1108    0.0005 C.1     1  LIG1       -0.0696
     11 C          -1.1453   -2.1657    0.0008 C.1     1  LIG1       -0.1139
     12 H          -1.6571   -3.1054    0.0010 H       1  LIG1        0.1232
     13 H           2.1896    3.5590   -0.0012 H       1  LIG1        0.0624
     14 C           3.4844    1.1831   -0.0005 C.ar    1  LIG1        0.0928
     15 C           4.3366    0.1240   -0.0009 C.ar    1  LIG1        0.1849
     16 C           5.6695    0.6476    0.0003 C.ar    1  LIG1        0.1879
     17 C           5.5731    2.0036   -0.0004 C.ar    1  LIG1        0.1286
     18 N           4.2371    2.3357   -0.0004 N.ar    1  LIG1       -0.3459
     19 H           3.8737    3.2609   -0.0009 H       1  LIG1        0.1662
     20 O           3.9998   -1.1317   -0.0008 O.3     1  LIG1       -0.5019
     21 H           4.7909   -1.6755   -0.0008 H       1  LIG1        0.2924
     22 O           6.7709   -0.0431    0.0013 O.3     1  LIG1       -0.5018
     23 H           7.5231    0.5534    0.0016 H       1  LIG1        0.2924
     24 C           6.5000    2.9151    0.0001 C.ar    1  LIG1        0.1604
     25 C           7.8795    2.9149    0.0005 C.ar    1  LIG1        0.0199
     26 C           8.2945    4.3022    0.0009 C.ar    1  LIG1        0.0970
     27 C           7.1406    5.0585    0.0007 C.ar    1  LIG1        0.1969
     28 O           6.0209    4.2259    0.0001 O.2     1  LIG1       -0.4478
     29 C           8.6751    1.8864    0.0005 C.3     1  LIG1       -0.0342
     30 H           9.5844    2.1389    0.5050 H       1  LIG1        0.0279
     31 H           8.8935    1.6043   -1.0083 H       1  LIG1        0.0279
     32 H           8.2023    1.0698    0.5049 H       1  LIG1        0.0279
     33 N           9.5238    4.7253    0.0014 N.pl3   1  LIG1       -0.2627
     34 H          10.1048    4.0617   -0.4699 H       1  LIG1        0.1701
     35 H           9.5734    5.6058   -0.4700 H       1  LIG1        0.0309
     36 C           6.8659    6.3292    0.0010 C.ar    1  LIG1        0.2198
     37 C           7.6037    7.4947    0.0160 C.ar    1  LIG1        0.2480
     38 C           6.6533    8.5873    0.0055 C.ar    1  LIG1        0.1110
     39 C           5.3974    8.0166   -0.0152 C.ar    1  LIG1        0.1172
     40 O           5.5022    6.6253   -0.0185 O.2     1  LIG1       -0.4539
     41 H           4.1769    8.4640   -0.0319 H       1  LIG1        0.1050
     42 O           8.8978    7.6171    0.0358 O.3     1  LIG1       -0.2818
     43 C           9.4998    6.3200    0.0430 C.3     2  LIG2       -0.0309
     44 H          10.5649    6.4212    0.0591 H       3  UNK3        0.0000
     45 H           9.1794    5.7829    0.9112 H       4  UNK4        0.0000
     46 H           9.2056    5.7854   -0.8359 H       5  UNK5        0.0000
     47 N           6.9531    9.8523    0.0143 N.pl3   1  LIG1       -0.3525
     48 H           7.8252    9.9914   -0.4548 H       1  LIG1        0.1425
     49 H           6.2362   10.3680   -0.4548 H       1  LIG1        0.1425
@<TRIPOS>BOND
     1    31    29    1
     2    35    43    1
     3    34    33    1
     4    49    47    1
     5    48    47    1
     6    41    39    1
     7    40    39   ar
     8    40    36   ar
     9    39    38   ar
    10    13     7    1
    11    15    20    1
    12    15    14   ar
    13    15    16   ar
    14    19    18    1
    15    20    21    1
    16     7     4   ar
    17     7     6   ar
    18    14     4    1
    19    14    18   ar
    20     4     2   ar
    21     6     8    1
    22     6     3   ar
    23    18    17   ar
    24    17    24    1
    25    17    16   ar
    26    24    28   ar
    27    24    25   ar
    28    28    27   ar
    29     1     2   ar
    30     1     3   ar
    31     1    10    1
    32     2     5    1
    33     3     9    1
    34    16    22    1
    35    25    29    1
    36    25    26   ar
    37    10    11    3
    38    29    32    1
    39    29    30    1
    40    27    26   ar
    41    27    36    1
    42    11    12    1
    43    26    33    1
    44    36    37   ar
    45    22    23    1
    46    38    47    1
    47    38    37   ar
    48    37    42    1
