@<TRIPOS>MOLECULE
mol_data/noopt/geoms/mol2/4ea4ea-.out
 26 27 0 0 0
SMALL
GASTEIGER

@<TRIPOS>ATOM
      1 C           0.0509    0.0309    0.0002 C.ar    1  LIG1        0.0253
      2 C           1.4592    0.0309    0.0002 C.ar    1  LIG1       -0.0386
      3 C          -0.6045    1.2792    0.0002 C.ar    1  LIG1       -0.0463
      4 C           2.1849    1.2200   -0.0004 C.ar    1  LIG1       -0.0156
      5 H           1.9850   -0.9213    0.0004 H       1  LIG1        0.0636
      6 C           0.1195    2.4666   -0.0004 C.ar    1  LIG1       -0.0600
      7 C           1.5181    2.4458   -0.0008 C.ar    1  LIG1       -0.0539
      8 H          -0.4090    3.4165   -0.0003 H       1  LIG1        0.0618
      9 H          -1.9035    1.3287    0.0016 H       1  LIG1        0.0630
     10 C          -0.5708   -1.1108    0.0005 C.1     1  LIG1       -0.0696
     11 C          -1.1453   -2.1657    0.0008 C.1     1  LIG1       -0.1139
     12 H          -1.6571   -3.1054    0.0010 H       1  LIG1        0.1232
     13 H           2.1896    3.5590   -0.0012 H       1  LIG1        0.0624
     14 C           4.2212    2.3851    0.0002 C.ar    1  LIG1        0.0324
     15 C           5.6264    2.2916    0.0016 C.ar    1  LIG1       -0.0457
     16 C           3.4843    1.1831   -0.0005 C.ar    1  LIG1       -0.0025
     17 C           6.2715    1.0569    0.0017 C.ar    1  LIG1       -0.0606
     18 H           6.2143    3.2067    0.0024 H       1  LIG1        0.0630
     19 C           4.1278   -0.0498   -0.0004 C.ar    1  LIG1       -0.0529
     20 C           5.5247   -0.1219    0.0006 C.ar    1  LIG1       -0.0611
     21 H           3.5374   -0.9625   -0.0009 H       1  LIG1        0.0624
     22 H           7.5706    1.0074    0.0029 H       1  LIG1        0.0618
     23 C           3.6767    3.5656   -0.0001 C.1     1  LIG1       -0.0691
     24 C           3.1735    4.6563   -0.0004 C.1     1  LIG1       -0.1139
     25 H           2.7253    5.6279   -0.0006 H       1  LIG1        0.1232
     26 H           6.1208   -1.2772    0.0008 H       1  LIG1        0.0618
@<TRIPOS>BOND
     1    13     7    1
     2    21    19    1
     3     7     4   ar
     4     7     6   ar
     5    25    24    1
     6    16    19   ar
     7    16     4    1
     8    16    14   ar
     9    19    20   ar
    10     4     2   ar
    11     6     8    1
    12     6     3   ar
    13    24    23    3
    14    23    14    1
    15    14    15   ar
    16     1     3   ar
    17     1     2   ar
    18     1    10    1
    19     3     9    1
    20     2     5    1
    21    10    11    3
    22    20    26    1
    23    20    17   ar
    24    11    12    1
    25    15    17   ar
    26    15    18    1
    27    17    22    1
