@<TRIPOS>MOLECULE
mol_data/noopt/geoms/mol2/4ea4ea-4ea-4ea-.out
 50 53 0 0 0
SMALL
GASTEIGER

@<TRIPOS>ATOM
      1 C           0.0509    0.0309    0.0002 C.ar    1  LIG1        0.0253
      2 C           1.4592    0.0309    0.0002 C.ar    1  LIG1       -0.0386
      3 C          -0.6045    1.2792    0.0002 C.ar    1  LIG1       -0.0463
      4 C           2.1849    1.2200   -0.0004 C.ar    1  LIG1       -0.0156
      5 H           1.9850   -0.9213    0.0004 H       1  LIG1        0.0636
      6 C           0.1195    2.4666   -0.0004 C.ar    1  LIG1       -0.0600
      7 C           1.5181    2.4458   -0.0008 C.ar    1  LIG1       -0.0539
      8 H          -0.4090    3.4165   -0.0003 H       1  LIG1        0.0618
      9 H          -1.9035    1.3287    0.0016 H       1  LIG1        0.0630
     10 C          -0.5708   -1.1108    0.0005 C.1     1  LIG1       -0.0696
     11 C          -1.1453   -2.1657    0.0008 C.1     1  LIG1       -0.1139
     12 H          -1.6571   -3.1054    0.0010 H       1  LIG1        0.1232
     13 H           2.1896    3.5590   -0.0012 H       1  LIG1        0.0624
     14 C           4.2212    2.3851    0.0002 C.ar    1  LIG1        0.0329
     15 C           5.6264    2.2916    0.0016 C.ar    1  LIG1       -0.0380
     16 C           3.4843    1.1831   -0.0005 C.ar    1  LIG1       -0.0024
     17 C           6.2715    1.0569    0.0017 C.ar    1  LIG1       -0.0155
     18 H           6.2143    3.2067    0.0024 H       1  LIG1        0.0636
     19 C           4.1278   -0.0498   -0.0004 C.ar    1  LIG1       -0.0523
     20 C           5.5247   -0.1219    0.0006 C.ar    1  LIG1       -0.0533
     21 H           3.5374   -0.9625   -0.0009 H       1  LIG1        0.0624
     22 C           3.6767    3.5656   -0.0001 C.1     1  LIG1       -0.0690
     23 C           3.1735    4.6563   -0.0004 C.1     1  LIG1       -0.1139
     24 H           2.7253    5.6279   -0.0006 H       1  LIG1        0.1232
     25 H           6.1208   -1.2772    0.0008 H       1  LIG1        0.0624
     26 C           8.3190    2.2022    0.0043 C.ar    1  LIG1        0.0329
     27 C           9.7232    2.0950    0.0071 C.ar    1  LIG1       -0.0380
     28 C           7.5705    1.0074    0.0029 C.ar    1  LIG1       -0.0024
     29 C          10.3563    0.8541    0.0079 C.ar    1  LIG1       -0.0155
     30 H          10.3199    3.0044    0.0084 H       1  LIG1        0.0636
     31 C           8.2020   -0.2317    0.0037 C.ar    1  LIG1       -0.0523
     32 C           9.5982   -0.3174    0.0061 C.ar    1  LIG1       -0.0533
     33 H           7.6028   -1.1386    0.0026 H       1  LIG1        0.0624
     34 C           7.7859    3.3879    0.0034 C.1     1  LIG1       -0.0690
     35 C           7.2934    4.4834    0.0026 C.1     1  LIG1       -0.1139
     36 H           6.8546    5.4594    0.0019 H       1  LIG1        0.1232
     37 H          10.1830   -1.4784    0.0069 H       1  LIG1        0.0624
     38 C          12.4148    1.9795    0.0125 C.ar    1  LIG1        0.0324
     39 C          13.8179    1.8587    0.0167 C.ar    1  LIG1       -0.0457
     40 C          11.6548    0.7920    0.0104 C.ar    1  LIG1       -0.0025
     41 C          14.4389    0.6118    0.0181 C.ar    1  LIG1       -0.0606
     42 H          14.4234    2.7623    0.0186 H       1  LIG1        0.0630
     43 C          12.2742   -0.4531    0.0118 C.ar    1  LIG1       -0.0529
     44 C          13.6695   -0.5523    0.0156 C.ar    1  LIG1       -0.0611
     45 H          11.6662   -1.3542    0.0102 H       1  LIG1        0.0624
     46 H          15.7368    0.5371    0.0219 H       1  LIG1        0.0618
     47 C          11.8933    3.1703    0.0110 C.1     1  LIG1       -0.0691
     48 C          11.4114    4.2706    0.0097 C.1     1  LIG1       -0.1139
     49 H          10.9821    5.2507    0.0085 H       1  LIG1        0.1232
     50 H          14.2430   -1.7190    0.0171 H       1  LIG1        0.0618
@<TRIPOS>BOND
     1    13     7    1
     2    21    19    1
     3     7     6   ar
     4     7     4   ar
     5    24    23    1
     6    16    19   ar
     7    16     4    1
     8    16    14   ar
     9    19    20   ar
    10     6     8    1
    11     6     3   ar
    12     4     2   ar
    13    23    22    3
    14    22    14    1
    15    14    15   ar
    16     1     3   ar
    17     1     2   ar
    18     1    10    1
    19     3     9    1
    20     2     5    1
    21    10    11    3
    22    20    25    1
    23    20    17   ar
    24    11    12    1
    25    15    17   ar
    26    15    18    1
    27    17    28    1
    28    36    35    1
    29    35    34    3
    30    33    31    1
    31    28    31   ar
    32    28    26   ar
    33    34    26    1
    34    31    32   ar
    35    26    27   ar
    36    32    37    1
    37    32    29   ar
    38    27    29   ar
    39    27    30    1
    40    29    40    1
    41    49    48    1
    42    48    47    3
    43    45    43    1
    44    40    43   ar
    45    40    38   ar
    46    47    38    1
    47    43    44   ar
    48    38    39   ar
    49    44    50    1
    50    44    41   ar
    51    39    41   ar
    52    39    42    1
    53    41    46    1
