@<TRIPOS>MOLECULE
mol_data/noopt/geoms/mol2/4ea4ia(80)4ae(180)6fe(80).out
 51 54 0 0 0
SMALL
GASTEIGER

@<TRIPOS>ATOM
      1 C           0.0509    0.0309    0.0002 C.ar    1  LIG1        0.0253
      2 C           1.4592    0.0309    0.0002 C.ar    1  LIG1       -0.0386
      3 C          -0.6045    1.2792    0.0002 C.ar    1  LIG1       -0.0463
      4 C           2.1849    1.2200   -0.0004 C.ar    1  LIG1       -0.0165
      5 H           1.9850   -0.9213    0.0004 H       1  LIG1        0.0636
      6 C           0.1195    2.4666   -0.0004 C.ar    1  LIG1       -0.0600
      7 C           1.5181    2.4458   -0.0008 C.ar    1  LIG1       -0.0539
      8 H          -0.4090    3.4165   -0.0003 H       1  LIG1        0.0618
      9 H          -1.9035    1.3287    0.0016 H       1  LIG1        0.0630
     10 C          -0.5708   -1.1108    0.0005 C.1     1  LIG1       -0.0696
     11 C          -1.1453   -2.1657    0.0008 C.1     1  LIG1       -0.1139
     12 H          -1.6571   -3.1054    0.0010 H       1  LIG1        0.1232
     13 H           2.1896    3.5590   -0.0012 H       1  LIG1        0.0624
     14 C           4.1806    0.9517    1.2034 C.ar    1  LIG1       -0.0422
     15 C           5.5876    0.9225    1.1508 C.ar    1  LIG1       -0.0505
     16 C           3.4843    1.1831   -0.0005 C.ar    1  LIG1       -0.0149
     17 C           6.2731    1.1145   -0.0466 C.ar    1  LIG1       -0.0176
     18 H           6.1445    0.7457    2.0682 H       1  LIG1        0.0626
     19 C           4.1682    1.3747   -1.1962 C.ar    1  LIG1       -0.0532
     20 C           5.5662    1.3418   -1.2281 C.ar    1  LIG1       -0.0534
     21 H           3.6086    1.5516   -2.1112 H       1  LIG1        0.0624
     22 C           3.5972    0.7656    2.3505 C.3     1  LIG1       -0.0391
     23 H           4.1266    0.0175    2.9027 H       1  LIG1        0.0278
     24 H           2.5893    0.4439    2.1901 H       1  LIG1        0.0278
     25 H           3.5955    1.6821    2.9027 H       1  LIG1        0.0278
     26 H           6.2001    1.5218   -2.3487 H       1  LIG1        0.0624
     27 C           8.3062    2.2850   -0.0663 C.ar    1  LIG1       -0.0534
     28 C           9.7116    2.1952   -0.0811 C.ar    1  LIG1       -0.0521
     29 C           7.5726    1.0810   -0.0589 C.ar    1  LIG1       -0.0167
     30 C          10.3599    0.9623   -0.0877 C.ar    1  LIG1        0.0026
     31 H          10.2970    3.1119   -0.0873 H       1  LIG1        0.0624
     32 C           8.2194   -0.1501   -0.0655 C.ar    1  LIG1       -0.0380
     33 C           9.6164   -0.2185   -0.0798 C.ar    1  LIG1        0.0331
     34 H           7.6314   -1.0644   -0.0597 H       1  LIG1        0.0636
     35 H           7.7585    3.4640   -0.0605 H       1  LIG1        0.0624
     36 C          10.2155   -1.3722   -0.0860 C.1     1  LIG1       -0.0690
     37 C          10.7690   -2.4383   -0.0918 C.1     1  LIG1       -0.1139
     38 H          11.2621   -3.3879   -0.0969 H       1  LIG1        0.1232
     39 C          12.3647    1.1025   -1.3041 C.ar    1  LIG1        0.2203
     40 C          11.6590    0.9162   -0.1013 C.ar    1  LIG1        0.0458
     41 C          12.3849    0.6828    1.0682 C.ar    1  LIG1       -0.0320
     42 C          13.7784    0.6434    0.9976 C.ar    1  LIG1        0.0436
     43 C          14.3934    0.8412   -0.2523 C.ar    1  LIG1        0.0468
     44 N          13.7086    1.0678   -1.3904 N.ar    1  LIG1       -0.2197
     45 H          11.8682    0.5316    2.0266 H       1  LIG1        0.0638
     46 H          15.6878    0.8137   -0.3690 H       1  LIG1        0.0843
     47 O          11.7333    1.3229   -2.4190 O.3     1  LIG1       -0.4920
     48 H          11.2794    0.5228   -2.6937 H       1  LIG1        0.2937
     49 C          14.4993    0.4292    2.0580 C.1     1  LIG1       -0.0681
     50 C          15.1654    0.2313    3.0378 C.1     1  LIG1       -0.1139
     51 H          15.7587    0.0550    3.9106 H       1  LIG1        0.1232
@<TRIPOS>BOND
     1    48    47    1
     2    47    39    1
     3    26    20    1
     4    21    19    1
     5    44    39   ar
     6    44    43   ar
     7    39    40   ar
     8    20    19   ar
     9    20    17   ar
    10    19    16   ar
    11    46    43    1
    12    43    42   ar
    13    40    30    1
    14    40    41   ar
    15    38    37    1
    16    37    36    3
    17    30    28   ar
    18    30    33   ar
    19    31    28    1
    20    36    33    1
    21    28    27   ar
    22    33    32   ar
    23    27    35    1
    24    27    29   ar
    25    32    34    1
    26    32    29   ar
    27    29    17    1
    28    17    15   ar
    29    13     7    1
    30     7     6   ar
    31     7     4   ar
    32    16     4    1
    33    16    14   ar
    34     6     8    1
    35     6     3   ar
    36     4     2   ar
    37     1     2   ar
    38     1     3   ar
    39     1    10    1
    40     2     5    1
    41     3     9    1
    42    10    11    3
    43    11    12    1
    44    42    41   ar
    45    42    49    1
    46    41    45    1
    47    15    14   ar
    48    15    18    1
    49    14    22    1
    50    49    50    3
    51    24    22    1
    52    22    25    1
    53    22    23    1
    54    50    51    1
