@<TRIPOS>MOLECULE
mol_data/noopt/geoms/mol2/4ea4ed-13ai-13de.out
 49 52 0 0 0
SMALL
GASTEIGER

@<TRIPOS>ATOM
      1 C           0.0509    0.0309    0.0002 C.ar    1  LIG1        0.0253
      2 C           1.4592    0.0309    0.0002 C.ar    1  LIG1       -0.0386
      3 C          -0.6045    1.2792    0.0002 C.ar    1  LIG1       -0.0463
      4 C           2.1849    1.2200   -0.0004 C.ar    1  LIG1       -0.0155
      5 H           1.9850   -0.9213    0.0004 H       1  LIG1        0.0636
      6 C           0.1195    2.4666   -0.0004 C.ar    1  LIG1       -0.0600
      7 C           1.5181    2.4458   -0.0008 C.ar    1  LIG1       -0.0539
      8 H          -0.4090    3.4165   -0.0003 H       1  LIG1        0.0618
      9 H          -1.9035    1.3287    0.0016 H       1  LIG1        0.0630
     10 C          -0.5708   -1.1108    0.0005 C.1     1  LIG1       -0.0696
     11 C          -1.1453   -2.1657    0.0008 C.1     1  LIG1       -0.1139
     12 H          -1.6571   -3.1054    0.0010 H       1  LIG1        0.1232
     13 H           2.1896    3.5590   -0.0012 H       1  LIG1        0.0624
     14 C           4.1518   -0.0586    0.0215 C.ar    1  LIG1        0.0331
     15 C           5.5600   -0.0449    0.0220 C.ar    1  LIG1       -0.0354
     16 C           3.4843    1.1831   -0.0005 C.ar    1  LIG1       -0.0012
     17 C           6.2742    1.1510    0.0009 C.ar    1  LIG1        0.0168
     18 H           6.0951   -0.9918    0.0390 H       1  LIG1        0.0637
     19 C           4.1968    2.3773   -0.0216 C.ar    1  LIG1       -0.0348
     20 C           5.5955    2.3701   -0.0212 C.ar    1  LIG1        0.0615
     21 H           3.6591    3.3219   -0.0383 H       1  LIG1        0.0637
     22 C           3.5412   -1.2061    0.0416 C.1     1  LIG1       -0.0690
     23 C           2.9769   -2.2663    0.0601 C.1     1  LIG1       -0.1139
     24 H           2.4743   -3.2108    0.0766 H       1  LIG1        0.1232
     25 N           6.8388    4.4769   -0.0581 N.1     1  LIG1       -0.1908
     26 C           6.2561    3.4895   -0.0408 C.1     1  LIG1        0.0998
     27 C           7.5739    1.1267    0.0018 C.ar    1  LIG1        0.0485
     28 C           8.4364    0.0761    0.0188 C.ar    1  LIG1       -0.0328
     29 C           9.7641    0.6126    0.0120 C.ar    1  LIG1       -0.0231
     30 C           9.6546    1.9674   -0.0104 C.ar    1  LIG1        0.0676
     31 N           8.3154    2.2865   -0.0163 N.ar    1  LIG1       -0.3527
     32 H           7.9430    3.2079   -0.0318 H       1  LIG1        0.1660
     33 H           8.1119   -1.1826    0.0389 H       1  LIG1        0.0641
     34 C          10.8724   -0.0674    0.0246 C.3     1  LIG1       -0.0376
     35 H          11.6291    0.4932    0.5325 H       1  LIG1        0.0278
     36 H          11.1847   -0.2590   -0.9807 H       1  LIG1        0.0278
     37 H          10.7153   -0.9961    0.5324 H       1  LIG1        0.0278
     38 C          10.5726    2.8878   -0.0243 C.ar    1  LIG1        0.0819
     39 C          11.9278    2.7819   -0.0174 C.ar    1  LIG1        0.0937
     40 C          12.4608    4.1108   -0.0391 C.ar    1  LIG1        0.0600
     41 C          11.4078    4.9704   -0.0600 C.ar    1  LIG1        0.0190
     42 N          10.2499    4.2258   -0.0506 N.ar    1  LIG1       -0.3573
     43 H           9.3273    4.5956   -0.0617 H       1  LIG1        0.1655
     44 H          11.3800    6.2699   -0.0841 H       1  LIG1        0.0820
     45 N          13.2131    0.7006    0.0270 N.1     1  LIG1       -0.1908
     46 C          12.6108    1.6760    0.0062 C.1     1  LIG1        0.1026
     47 C          13.7187    4.4388   -0.0393 C.1     1  LIG1       -0.0669
     48 C          14.8811    4.7419   -0.0395 C.1     1  LIG1       -0.1138
     49 H          15.9164    5.0119   -0.0397 H       1  LIG1        0.1232
@<TRIPOS>BOND
     1    36    34    1
     2    44    41    1
     3    43    42    1
     4    41    42   ar
     5    41    40   ar
     6    25    26    3
     7    42    38   ar
     8    26    20    1
     9    49    48    1
    10    48    47    3
    11    47    40    1
    12    40    39   ar
    13    21    19    1
    14    32    31    1
    15    38    39   ar
    16    38    30    1
    17    19    20   ar
    18    19    16   ar
    19    20    17   ar
    20    39    46    1
    21    31    30   ar
    22    31    27   ar
    23    30    29   ar
    24    13     7    1
    25     7     6   ar
    26     7     4   ar
    27    16     4    1
    28    16    14   ar
    29     6     8    1
    30     6     3   ar
    31     4     2   ar
    32     2     1   ar
    33     2     5    1
    34     3     1   ar
    35     3     9    1
    36     1    10    1
    37    10    11    3
    38    11    12    1
    39    17    27    1
    40    17    15   ar
    41    27    28   ar
    42    46    45    3
    43    29    28   ar
    44    29    34    1
    45    28    33    1
    46    14    15   ar
    47    14    22    1
    48    15    18    1
    49    34    37    1
    50    34    35    1
    51    22    23    3
    52    23    24    1
