@<TRIPOS>MOLECULE
mol_data/noopt/geoms/mol2/4ea4eh(230)13il(150)12ah(110).out
 52 55 0 0 0
SMALL
GASTEIGER

@<TRIPOS>ATOM
      1 C           0.0509    0.0309    0.0002 C.ar    1  LIG1        0.0253
      2 C           1.4592    0.0309    0.0002 C.ar    1  LIG1       -0.0386
      3 C          -0.6045    1.2792    0.0002 C.ar    1  LIG1       -0.0463
      4 C           2.1849    1.2200   -0.0004 C.ar    1  LIG1       -0.0155
      5 H           1.9850   -0.9213    0.0004 H       1  LIG1        0.0636
      6 C           0.1195    2.4666   -0.0004 C.ar    1  LIG1       -0.0600
      7 C           1.5181    2.4458   -0.0008 C.ar    1  LIG1       -0.0539
      8 H          -0.4090    3.4165   -0.0003 H       1  LIG1        0.0618
      9 H          -1.9035    1.3287    0.0016 H       1  LIG1        0.0630
     10 C          -0.5708   -1.1108    0.0005 C.1     1  LIG1       -0.0696
     11 C          -1.1453   -2.1657    0.0008 C.1     1  LIG1       -0.1139
     12 H          -1.6571   -3.1054    0.0010 H       1  LIG1        0.1232
     13 H           2.1896    3.5590   -0.0012 H       1  LIG1        0.0624
     14 C           4.2087    1.9481   -0.9374 C.ar    1  LIG1        0.0331
     15 C           5.6144    1.8725   -0.8975 C.ar    1  LIG1       -0.0349
     16 C           3.4843    1.1831   -0.0005 C.ar    1  LIG1       -0.0007
     17 C           6.2719    1.0718    0.0338 C.ar    1  LIG1        0.0205
     18 H           6.1928    2.4545   -1.6116 H       1  LIG1        0.0637
     19 C           4.1402    0.3836    0.9294 C.ar    1  LIG1       -0.0315
     20 C           5.5374    0.3222    0.9534 C.ar    1  LIG1        0.0344
     21 H           3.5593   -0.1970    1.6415 H       1  LIG1        0.0643
     22 C           3.6523    2.7130   -1.8292 C.1     1  LIG1       -0.0690
     23 C           3.1382    3.4198   -2.6533 C.1     1  LIG1       -0.1139
     24 H           2.6802    4.0494   -3.3873 H       1  LIG1        0.1232
     25 N           6.1451   -0.4270    1.8249 N.pl3   1  LIG1       -0.3574
     26 H           5.8658   -1.3789    1.6985 H       1  LIG1        0.1423
     27 H           7.1341   -0.3503    1.6985 H       1  LIG1        0.1423
     28 C           7.5711    1.0258    0.0425 C.ar    1  LIG1        0.0553
     29 C           8.4815    1.9075    0.5341 C.ar    1  LIG1        0.0173
     30 C           9.7824    1.3662    0.2785 C.ar    1  LIG1        0.1518
     31 C           9.6096    0.1767   -0.3566 C.ar    1  LIG1        0.1250
     32 N           8.2573   -0.0353   -0.5035 N.ar    1  LIG1       -0.3485
     33 H           7.8423   -0.8290   -0.9347 H       1  LIG1        0.1661
     34 C           8.2162    3.0347    1.1256 C.3     1  LIG1       -0.0342
     35 H           7.3456    2.9204    1.7371 H       1  LIG1        0.0279
     36 H           8.0382    3.7906    0.3894 H       1  LIG1        0.0279
     37 H           9.0465    3.3208    1.7370 H       1  LIG1        0.0279
     38 O          10.9207    1.9089    0.5943 O.3     1  LIG1       -0.4926
     39 C          11.9187    0.8913    0.7102 C.3     1  LIG1        0.0789
     40 H          12.8555    1.3384    0.9699 H       1  LIG1        0.0660
     41 H          11.6323    0.1957    1.4712 H       1  LIG1        0.0660
     42 H          12.0152    0.3783   -0.2238 H       1  LIG1        0.0660
     43 C          10.4833   -0.6824   -0.7909 C.ar    1  LIG1        0.1563
     44 C          11.6174   -1.2768   -0.2773 C.ar    1  LIG1        0.0065
     45 C          12.1287   -2.1551   -1.3088 C.ar    1  LIG1        0.0635
     46 C          11.2727   -2.0392   -2.3847 C.ar    1  LIG1        0.1132
     47 O          10.2501   -1.1370   -2.0896 O.2     1  LIG1       -0.4595
     48 H          11.2027   -2.5615   -3.5731 H       1  LIG1        0.1049
     49 H          12.1453   -1.1011    0.8976 H       1  LIG1        0.0674
     50 N          13.1911   -2.8982   -1.2131 N.pl3   1  LIG1       -0.3555
     51 H          13.0239   -3.7777   -1.6586 H       1  LIG1        0.1424
     52 H          13.9599   -2.4396   -1.6587 H       1  LIG1        0.1424
@<TRIPOS>BOND
     1    48    46    1
     2    24    23    1
     3    23    22    3
     4    46    47   ar
     5    46    45   ar
     6    47    43   ar
     7    22    14    1
     8    52    50    1
     9    51    50    1
    10    18    15    1
    11    45    50    1
    12    45    44   ar
    13    14    15   ar
    14    14    16   ar
    15    33    32    1
    16    15    17   ar
    17    43    31    1
    18    43    44   ar
    19    32    31   ar
    20    32    28   ar
    21    31    30   ar
    22    44    49    1
    23    42    39    1
    24    13     7    1
    25     7     6   ar
    26     7     4   ar
    27    16     4    1
    28    16    19   ar
    29     6     8    1
    30     6     3   ar
    31     4     2   ar
    32     1     2   ar
    33     1     3   ar
    34     1    10    1
    35     2     5    1
    36     3     9    1
    37    10    11    3
    38    11    12    1
    39    17    28    1
    40    17    20   ar
    41    28    29   ar
    42    30    29   ar
    43    30    38    1
    44    36    34    1
    45    29    34    1
    46    38    39    1
    47    39    40    1
    48    39    41    1
    49    19    20   ar
    50    19    21    1
    51    20    25    1
    52    34    37    1
    53    34    35    1
    54    27    25    1
    55    26    25    1
