@<TRIPOS>MOLECULE
mol_data/noopt/geoms/mol2/4ea4ih-12ee-12al.out
 51 54 0 0 0
SMALL
GASTEIGER

@<TRIPOS>ATOM
      1 C           0.0509    0.0309    0.0002 C.ar    1  LIG1        0.0253
      2 C           1.4592    0.0309    0.0002 C.ar    1  LIG1       -0.0386
      3 C          -0.6045    1.2792    0.0002 C.ar    1  LIG1       -0.0463
      4 C           2.1849    1.2200   -0.0004 C.ar    1  LIG1       -0.0164
      5 H           1.9850   -0.9213    0.0004 H       1  LIG1        0.0636
      6 C           0.1195    2.4666   -0.0004 C.ar    1  LIG1       -0.0600
      7 C           1.5181    2.4458   -0.0008 C.ar    1  LIG1       -0.0539
      8 H          -0.4090    3.4165   -0.0003 H       1  LIG1        0.0618
      9 H          -1.9035    1.3287    0.0016 H       1  LIG1        0.0630
     10 C          -0.5708   -1.1108    0.0005 C.1     1  LIG1       -0.0696
     11 C          -1.1453   -2.1657    0.0008 C.1     1  LIG1       -0.1139
     12 H          -1.6571   -3.1054    0.0010 H       1  LIG1        0.1232
     13 H           2.1896    3.5590   -0.0012 H       1  LIG1        0.0624
     14 C           4.1518   -0.0586    0.0215 C.ar    1  LIG1       -0.0420
     15 C           5.5600   -0.0449    0.0220 C.ar    1  LIG1       -0.0458
     16 C           3.4843    1.1831   -0.0005 C.ar    1  LIG1       -0.0132
     17 C           6.2742    1.1510    0.0009 C.ar    1  LIG1        0.0394
     18 H           6.0951   -0.9918    0.0390 H       1  LIG1        0.0628
     19 C           4.1968    2.3773   -0.0216 C.ar    1  LIG1       -0.0324
     20 C           5.5955    2.3701   -0.0212 C.ar    1  LIG1        0.0360
     21 H           3.6591    3.3219   -0.0383 H       1  LIG1        0.0642
     22 C           3.5410   -1.2063    0.0416 C.3     1  LIG1       -0.0391
     23 H           4.1484   -1.9247    0.5515 H       1  LIG1        0.0278
     24 H           3.3662   -1.5350   -0.9616 H       1  LIG1        0.0278
     25 H           2.6059   -1.1038    0.5514 H       1  LIG1        0.0278
     26 N           6.2561    3.4895   -0.0408 N.pl3   1  LIG1       -0.3574
     27 H           7.1251    3.3554   -0.5172 H       1  LIG1        0.1423
     28 H           5.7188    4.1854   -0.5172 H       1  LIG1        0.1423
     29 C           7.5739    1.1267    0.0018 C.ar    1  LIG1        0.1541
     30 C           8.5391    0.1412    0.0174 C.ar    1  LIG1        0.0865
     31 C           9.8206    0.8154    0.0077 C.ar    1  LIG1        0.0894
     32 C           9.5534    2.1688   -0.0133 C.ar    1  LIG1        0.1872
     33 O           8.1751    2.3860   -0.0173 O.2     1  LIG1       -0.4491
     34 C           8.3612   -1.1464    0.0371 C.1     1  LIG1       -0.0646
     35 C           8.1968   -2.3362    0.0553 C.1     1  LIG1       -0.1138
     36 H           8.0504   -3.3960    0.0716 H       1  LIG1        0.1232
     37 C          10.9830    0.2334    0.0171 C.1     1  LIG1       -0.0645
     38 C          12.0570   -0.3044    0.0258 C.1     1  LIG1       -0.1138
     39 H          13.0138   -0.7835    0.0336 H       1  LIG1        0.1232
     40 C          10.2689    3.2541   -0.0295 C.ar    1  LIG1        0.1746
     41 C          11.6179    3.5427   -0.0271 C.ar    1  LIG1        0.0291
     42 C          11.7333    4.9859   -0.0536 C.ar    1  LIG1        0.1583
     43 C          10.4466    5.4837   -0.0707 C.ar    1  LIG1        0.1342
     44 O           9.5261    4.4353   -0.0564 O.2     1  LIG1       -0.4560
     45 H           9.9121    6.6684   -0.0962 H       1  LIG1        0.1068
     46 H          12.6109    2.7040   -0.0053 H       1  LIG1        0.0693
     47 O          12.8468    5.6569   -0.0597 O.3     1  LIG1       -0.4919
     48 C          13.9514    4.7487   -0.0621 C.3     1  LIG1        0.0789
     49 H          14.8676    5.3014   -0.0672 H       1  LIG1        0.0660
     50 H          13.9102    4.1348    0.8134 H       1  LIG1        0.0660
     51 H          13.9029    4.1304   -0.9339 H       1  LIG1        0.0660
@<TRIPOS>BOND
     1    24    22    1
     2    51    48    1
     3    28    26    1
     4    27    26    1
     5    45    43    1
     6    43    44   ar
     7    43    42   ar
     8    49    48    1
     9    48    47    1
    10    48    50    1
    11    47    42    1
    12    44    40   ar
    13    42    41   ar
    14    26    20    1
    15    21    19    1
    16    40    41   ar
    17    40    32    1
    18    41    46    1
    19    19    20   ar
    20    19    16   ar
    21    20    17   ar
    22    33    32   ar
    23    33    29   ar
    24    32    31   ar
    25    13     7    1
    26     7     4   ar
    27     7     6   ar
    28    16     4    1
    29    16    14   ar
    30     4     2   ar
    31     6     8    1
    32     6     3   ar
    33     1     3   ar
    34     1     2   ar
    35     1    10    1
    36     3     9    1
    37     2     5    1
    38    10    11    3
    39    11    12    1
    40    17    29    1
    41    17    15   ar
    42    29    30   ar
    43    31    37    1
    44    31    30   ar
    45    37    38    3
    46    30    34    1
    47    14    15   ar
    48    14    22    1
    49    15    18    1
    50    38    39    1
    51    34    35    3
    52    22    25    1
    53    22    23    1
    54    35    36    1
