@<TRIPOS>MOLECULE
mol_data/noopt/geoms/mol2/4ea6ai(150)6dd(20)12id(240).out
 48 51 0 0 0
SMALL
GASTEIGER

@<TRIPOS>ATOM
      1 C           0.0509    0.0309    0.0002 C.ar    1  LIG1        0.0253
      2 C           1.4592    0.0309    0.0002 C.ar    1  LIG1       -0.0386
      3 C          -0.6045    1.2792    0.0002 C.ar    1  LIG1       -0.0463
      4 C           2.1849    1.2200   -0.0004 C.ar    1  LIG1       -0.0153
      5 H           1.9850   -0.9213    0.0004 H       1  LIG1        0.0636
      6 C           0.1195    2.4666   -0.0004 C.ar    1  LIG1       -0.0600
      7 C           1.5181    2.4458   -0.0008 C.ar    1  LIG1       -0.0539
      8 H          -0.4090    3.4165   -0.0003 H       1  LIG1        0.0618
      9 H          -1.9035    1.3287    0.0016 H       1  LIG1        0.0630
     10 C          -0.5708   -1.1108    0.0005 C.1     1  LIG1       -0.0696
     11 C          -1.1453   -2.1657    0.0008 C.1     1  LIG1       -0.1139
     12 H          -1.6571   -3.1054    0.0010 H       1  LIG1        0.1232
     13 H           2.1896    3.5590   -0.0012 H       1  LIG1        0.0624
     14 C           4.1653    0.1119   -0.6073 C.ar    1  LIG1        0.0360
     15 C           3.4844    1.1831   -0.0005 C.ar    1  LIG1        0.0005
     16 C           4.2349    2.1976    0.5965 C.ar    1  LIG1       -0.0476
     17 C           5.6277    2.1088    0.5679 C.ar    1  LIG1       -0.0238
     18 C           6.2169    0.9979   -0.0630 C.ar    1  LIG1        0.0766
     19 N           5.5081    0.0103   -0.6441 N.ar    1  LIG1       -0.2540
     20 H           3.7379    3.0500    1.0812 H       1  LIG1        0.0627
     21 H           3.5104   -0.8563   -1.1762 H       1  LIG1        0.0836
     22 C           6.3711    3.0277    1.1099 C.3     1  LIG1       -0.0377
     23 H           5.7637    3.6658    1.7171 H       1  LIG1        0.0278
     24 H           6.8395    3.6067    0.3415 H       1  LIG1        0.0278
     25 H           7.1220    2.5668    1.7170 H       1  LIG1        0.0278
     26 C           8.3119    1.9379   -0.5588 C.ar    1  LIG1        0.1500
     27 C           7.5096    0.8705   -0.1156 C.ar    1  LIG1        0.0377
     28 C           8.1332   -0.3196    0.2635 C.ar    1  LIG1       -0.0302
     29 C           9.5246   -0.4029    0.1877 C.ar    1  LIG1        0.0814
     30 C          10.2406    0.7190   -0.2686 C.ar    1  LIG1        0.1250
     31 N           9.6552    1.8749   -0.6381 N.ar    1  LIG1       -0.2313
     32 H           7.5392   -1.1755    0.6140 H       1  LIG1        0.0638
     33 N           7.3063    4.0608   -1.2429 N.1     1  LIG1       -0.1893
     34 C           7.7776    3.0659   -0.9223 C.1     1  LIG1        0.1198
     35 N          10.7061   -2.4467    0.8300 N.1     1  LIG1       -0.1908
     36 C          10.1524   -1.4889    0.5290 C.1     1  LIG1        0.1014
     37 C          11.5373    0.6902   -0.3566 C.ar    1  LIG1        0.1584
     38 C          12.4754    1.2019   -1.2291 C.ar    1  LIG1        0.0142
     39 C          13.7717    0.7888   -0.7334 C.ar    1  LIG1        0.0929
     40 C          13.5398    0.0519    0.4097 C.ar    1  LIG1        0.1102
     41 O          12.1697   -0.0230    0.6628 O.2     1  LIG1       -0.4598
     42 H          14.2818   -0.5693    1.2778 H       1  LIG1        0.1043
     43 C          12.2647    1.9172   -2.2943 C.3     1  LIG1       -0.0348
     44 H          11.2522    2.2631   -2.2973 H       1  LIG1        0.0279
     45 H          12.4403    1.3206   -3.1651 H       1  LIG1        0.0279
     46 H          12.9284    2.7566   -2.2973 H       1  LIG1        0.0279
     47 N          15.9272    1.3214   -1.7613 N.1     1  LIG1       -0.1908
     48 C          14.9170    1.0718   -1.2796 C.1     1  LIG1        0.1026
@<TRIPOS>BOND
     1    45    43    1
     2    44    43    1
     3    46    43    1
     4    43    38    1
     5    47    48    3
     6    48    39    1
     7    33    34    3
     8    38    39   ar
     9    38    37   ar
    10    21    14    1
    11    34    26    1
    12    39    40   ar
    13    19    14   ar
    14    19    18   ar
    15    31    26   ar
    16    31    30   ar
    17    14    15   ar
    18    26    27   ar
    19    37    30    1
    20    37    41   ar
    21    30    29   ar
    22    27    18    1
    23    27    28   ar
    24    18    17   ar
    25    13     7    1
    26     7     6   ar
    27     7     4   ar
    28    15     4    1
    29    15    16   ar
    30     6     8    1
    31     6     3   ar
    32     4     2   ar
    33     1     2   ar
    34     1     3   ar
    35     1    10    1
    36     2     5    1
    37     3     9    1
    38    10    11    3
    39    11    12    1
    40    29    28   ar
    41    29    36    1
    42    28    32    1
    43    24    22    1
    44    40    41   ar
    45    40    42    1
    46    36    35    3
    47    17    16   ar
    48    17    22    1
    49    16    20    1
    50    22    25    1
    51    22    23    1
