@<TRIPOS>MOLECULE
mol_data/noopt/geoms/mol2/4ea6di-13he-6ef.out
 51 53 0 0 0
SMALL
GASTEIGER

@<TRIPOS>ATOM
      1 C           0.0509    0.0309    0.0002 C.ar    1  LIG1        0.0253
      2 C           1.4592    0.0309    0.0002 C.ar    1  LIG1       -0.0385
      3 C          -0.6045    1.2792    0.0002 C.ar    1  LIG1       -0.0463
      4 C           2.1849    1.2200   -0.0004 C.ar    1  LIG1       -0.0140
      5 H           1.9850   -0.9213    0.0004 H       1  LIG1        0.0636
      6 C           0.1195    2.4666   -0.0004 C.ar    1  LIG1       -0.0600
      7 C           1.5181    2.4458   -0.0008 C.ar    1  LIG1       -0.0539
      8 H          -0.4090    3.4165   -0.0003 H       1  LIG1        0.0618
      9 H          -1.9035    1.3287    0.0016 H       1  LIG1        0.0630
     10 C          -0.5708   -1.1108    0.0005 C.1     1  LIG1       -0.0696
     11 C          -1.1453   -2.1657    0.0008 C.1     1  LIG1       -0.1139
     12 H          -1.6571   -3.1054    0.0010 H       1  LIG1        0.1232
     13 H           2.1896    3.5590   -0.0012 H       1  LIG1        0.0624
     14 C           4.2297    2.3762   -0.0216 C.ar    1  LIG1        0.1485
     15 C           3.4844    1.1831   -0.0005 C.ar    1  LIG1        0.0186
     16 C           4.1715   -0.0320    0.0205 C.ar    1  LIG1       -0.0414
     17 C           5.5674   -0.0147    0.0195 C.ar    1  LIG1        0.0124
     18 C           6.2235    1.2297   -0.0026 C.ar    1  LIG1        0.0982
     19 N           5.5764    2.4113   -0.0228 N.ar    1  LIG1       -0.2336
     20 H           3.6233   -0.9846    0.0362 H       1  LIG1        0.0631
     21 N           3.1108    4.5516   -0.0589 N.1     1  LIG1       -0.1893
     22 C           3.6351    3.5321   -0.0414 C.1     1  LIG1        0.1197
     23 C           6.2533   -1.1192    0.0383 C.3     2  LIG2       -0.0681
     24 H           7.1798   -0.9550    0.5478 H       1  LIG1        0.0227
     25 H           6.4492   -1.4345   -0.9653 H       1  LIG1        0.0227
     26 H           5.6954   -1.8769    0.5478 H       1  LIG1        0.0227
     27 C           7.5217    1.2976   -0.0044 C.ar    1  LIG1        0.0882
     28 C           8.4565    0.3107    0.0107 C.ar    1  LIG1        0.0679
     29 C           9.7428    0.9399    0.0013 C.ar    1  LIG1        0.0713
     30 C           9.5376    2.2836   -0.0209 C.ar    1  LIG1        0.0672
     31 N           8.1791    2.5069   -0.0240 N.ar    1  LIG1       -0.3504
     32 H           7.7424    3.3997   -0.0387 H       1  LIG1        0.1660
     33 N           8.2220   -0.9678    0.0315 N.pl3   1  LIG1       -0.3553
     34 H           7.3574   -1.1557   -0.4345 H       1  LIG1        0.1424
     35 H           8.9636   -1.4503   -0.4346 H       1  LIG1        0.1424
     36 C          10.8963    0.3403    0.0115 C.1     1  LIG1       -0.0657
     37 C          11.9620   -0.2138    0.0209 C.1     1  LIG1       -0.1138
     38 H          12.9114   -0.7073    0.0293 H       1  LIG1        0.1232
     39 C           9.9351    4.5987   -0.0451 C.ar    1  LIG1        0.1225
     40 C          10.3880    3.2667   -0.0366 C.ar    1  LIG1        0.0368
     41 C          11.7639    3.0302   -0.0452 C.ar    1  LIG1       -0.0069
     42 C          12.6333    4.1222   -0.0619 C.ar    1  LIG1        0.1356
     43 C          12.0843    5.4176   -0.0695 C.ar    1  LIG1        0.0704
     44 N          10.7596    5.6639   -0.0612 N.ar    1  LIG1       -0.2424
     45 H          12.1551    2.0030   -0.0400 H       1  LIG1        0.0662
     46 H          12.8527    6.4660   -0.0849 H       1  LIG1        0.0867
     47 C           8.6637    4.8694   -0.0375 C.1     1  LIG1       -0.0491
     48 C           7.4888    5.1196   -0.0306 C.1     1  LIG1       -0.1124
     49 H           6.4423    5.3425   -0.0244 H       1  LIG1        0.1232
     50 O          13.9225    3.9548   -0.0706 O.3     1  LIG1       -0.5052
     51 H          14.3567    4.8110   -0.0728 H       1  LIG1        0.2922
@<TRIPOS>BOND
     1    25    23    1
     2    35    33    1
     3    34    33    1
     4    46    43    1
     5    51    50    1
     6    50    42    1
     7    43    42   ar
     8    43    44   ar
     9    42    41   ar
    10    44    39   ar
    11    21    22    3
    12    41    45    1
    13    41    40   ar
    14    39    47    1
    15    39    40   ar
    16    22    14    1
    17    32    31    1
    18    47    48    3
    19    40    30    1
    20    48    49    1
    21    31    30   ar
    22    31    27   ar
    23    19    14   ar
    24    19    18   ar
    25    14    15   ar
    26    30    29   ar
    27    27    18    1
    28    27    28   ar
    29    18    17   ar
    30    13     7    1
    31     7     4   ar
    32     7     6   ar
    33    15     4    1
    34    15    16   ar
    35     4     2   ar
    36     6     8    1
    37     6     3   ar
    38     1     2   ar
    39     1     3   ar
    40     1    10    1
    41     2     5    1
    42     3     9    1
    43    10    11    3
    44    11    12    1
    45    29    28   ar
    46    29    36    1
    47    28    33    1
    48    36    37    3
    49    17    16   ar
    50    16    20    1
    51    37    38    1
    52    23    26    1
    53    23    24    1
