@<TRIPOS>MOLECULE
mol_data/noopt/geoms/mol2/4ed12il(220)13id(150)6da(220).out
 51 54 0 0 0
SMALL
GASTEIGER

@<TRIPOS>ATOM
      1 C           0.0509    0.0309    0.0002 C.ar    1  LIG1        0.0254
      2 C           1.4592    0.0309    0.0002 C.ar    1  LIG1       -0.0344
      3 C          -0.6045    1.2792    0.0002 C.ar    1  LIG1       -0.0451
      4 C           2.1849    1.2200   -0.0004 C.ar    1  LIG1        0.0361
      5 H           1.9850   -0.9213    0.0004 H       1  LIG1        0.0637
      6 C           0.1195    2.4666   -0.0004 C.ar    1  LIG1       -0.0425
      7 C           1.5181    2.4458   -0.0008 C.ar    1  LIG1        0.0625
      8 H          -0.4090    3.4165   -0.0003 H       1  LIG1        0.0631
      9 H          -1.9035    1.3287    0.0016 H       1  LIG1        0.0630
     10 C          -0.5708   -1.1108    0.0005 C.1     1  LIG1       -0.0696
     11 C          -1.1453   -2.1657    0.0008 C.1     1  LIG1       -0.1139
     12 H          -1.6571   -3.1054    0.0010 H       1  LIG1        0.1232
     13 N           2.7818    4.5408   -0.0016 N.1     1  LIG1       -0.1908
     14 C           2.1896    3.5590   -0.0012 C.1     1  LIG1        0.0999
     15 C           3.4844    1.1831   -0.0005 C.ar    1  LIG1        0.1436
     16 C           4.4894    1.9344   -0.5736 C.ar    1  LIG1        0.0377
     17 C           5.7417    1.3361   -0.1602 C.ar    1  LIG1        0.1706
     18 C           5.4186    0.2585    0.6385 C.ar    1  LIG1        0.1936
     19 O           4.0327    0.1435    0.7520 O.2     1  LIG1       -0.4492
     20 C           4.3651    2.9787   -1.3383 C.3     1  LIG1       -0.0326
     21 H           3.4285    3.4565   -1.1401 H       1  LIG1        0.0280
     22 H           4.4011    2.6760   -2.3640 H       1  LIG1        0.0280
     23 H           5.1635    3.6629   -1.1402 H       1  LIG1        0.0280
     24 O           6.9271    1.7541   -0.4921 O.3     1  LIG1       -0.4910
     25 C           7.8105    0.6363   -0.6141 C.3     1  LIG1        0.0790
     26 H           8.7860    0.9807   -0.8874 H       1  LIG1        0.0660
     27 H           7.8639    0.1200    0.3217 H       1  LIG1        0.0660
     28 H           7.4429   -0.0284   -1.3676 H       1  LIG1        0.0660
     29 C           6.0884   -0.6461    1.2890 C.ar    1  LIG1        0.0904
     30 C           7.1321   -0.5209    2.1509 C.ar    1  LIG1       -0.0041
     31 C           7.4919   -1.8385    2.5812 C.ar    1  LIG1        0.0806
     32 C           6.6510   -2.7108    1.9647 C.ar    1  LIG1        0.0676
     33 N           5.7904   -1.9850    1.1723 N.ar    1  LIG1       -0.3503
     34 H           5.0681   -2.3671    0.6063 H       1  LIG1        0.1660
     35 C           7.6981    0.5920    2.5141 C.3     1  LIG1       -0.0364
     36 H           7.0107    1.1678    3.0981 H       1  LIG1        0.0279
     37 H           7.9810    1.1485    1.6450 H       1  LIG1        0.0279
     38 H           8.5682    0.3757    3.0980 H       1  LIG1        0.0279
     39 N           9.2867   -2.4200    4.1388 N.1     1  LIG1       -0.1908
     40 C           8.4456   -2.1475    3.4088 C.1     1  LIG1        0.1016
     41 C           5.6159   -4.6244    2.8507 C.ar    1  LIG1        0.1491
     42 C           6.5810   -4.0070    2.0341 C.ar    1  LIG1        0.0354
     43 C           7.4545   -4.8167    1.3058 C.ar    1  LIG1       -0.0484
     44 C           7.3359   -6.2031    1.4167 C.ar    1  LIG1       -0.0429
     45 C           6.3386   -6.7265    2.2599 C.ar    1  LIG1        0.0291
     46 N           5.4875   -5.9601    2.9695 N.ar    1  LIG1       -0.2440
     47 H           8.2222   -4.3703    0.6579 H       1  LIG1        0.0625
     48 H           6.1888   -8.0106    2.3961 H       1  LIG1        0.0830
     49 N           4.0435   -3.2856    4.1626 N.1     1  LIG1       -0.1893
     50 C           4.7804   -3.9130    3.5478 C.1     1  LIG1        0.1198
     51 H           8.1253   -6.9998    0.7593 H       1  LIG1        0.0633
@<TRIPOS>BOND
     1    22    20    1
     2    28    25    1
     3    20    23    1
     4    20    21    1
     5    20    16    1
     6    26    25    1
     7    25    24    1
     8    25    27    1
     9    16    17   ar
    10    16    15   ar
    11    24    17    1
    12    17    18   ar
    13    13    14    3
    14    14     7    1
    15     7     6   ar
    16     7     4   ar
    17    15     4    1
    18    15    19   ar
    19     6     8    1
    20     6     3   ar
    21     4     2   ar
    22     1     3   ar
    23     1     2   ar
    24     1    10    1
    25     3     9    1
    26     2     5    1
    27    10    11    3
    28    11    12    1
    29    34    33    1
    30    18    19   ar
    31    18    29    1
    32    47    43    1
    33    51    44    1
    34    33    29   ar
    35    33    32   ar
    36    29    30   ar
    37    43    44   ar
    38    43    42   ar
    39    44    45   ar
    40    37    35    1
    41    32    42    1
    42    32    31   ar
    43    42    41   ar
    44    30    35    1
    45    30    31   ar
    46    45    48    1
    47    45    46   ar
    48    35    38    1
    49    35    36    1
    50    31    40    1
    51    41    46   ar
    52    41    50    1
    53    40    39    3
    54    50    49    3
