@<TRIPOS>MOLECULE
mol_data/noopt/geoms/mol2/4ed13ie-13ai-13ai.out
 50 53 0 0 0
SMALL
GASTEIGER

@<TRIPOS>ATOM
      1 C           0.0509    0.0309    0.0002 C.ar    1  LIG1        0.0254
      2 C           1.4592    0.0309    0.0002 C.ar    1  LIG1       -0.0360
      3 C          -0.6045    1.2792    0.0002 C.ar    1  LIG1       -0.0451
      4 C           2.1849    1.2200   -0.0004 C.ar    1  LIG1        0.0171
      5 H           1.9850   -0.9213    0.0004 H       1  LIG1        0.0637
      6 C           0.1195    2.4666   -0.0004 C.ar    1  LIG1       -0.0426
      7 C           1.5181    2.4458   -0.0008 C.ar    1  LIG1        0.0609
      8 H          -0.4090    3.4165   -0.0003 H       1  LIG1        0.0631
      9 H          -1.9035    1.3287    0.0016 H       1  LIG1        0.0630
     10 C          -0.5708   -1.1108    0.0005 C.1     1  LIG1       -0.0696
     11 C          -1.1453   -2.1657    0.0008 C.1     1  LIG1       -0.1139
     12 H          -1.6571   -3.1054    0.0010 H       1  LIG1        0.1232
     13 N           2.7818    4.5408   -0.0016 N.1     1  LIG1       -0.1908
     14 C           2.1896    3.5590   -0.0012 C.1     1  LIG1        0.0998
     15 C           3.4844    1.1831   -0.0005 C.ar    1  LIG1        0.0524
     16 C           4.3366    0.1241    0.0157 C.ar    1  LIG1       -0.0091
     17 C           5.6695    0.6477    0.0079 C.ar    1  LIG1        0.0548
     18 C           5.5731    2.0035   -0.0145 C.ar    1  LIG1        0.0792
     19 N           4.2371    2.3356   -0.0192 N.ar    1  LIG1       -0.3518
     20 H           3.8736    3.2606   -0.0344 H       1  LIG1        0.1660
     21 C           3.9998   -1.1316    0.0361 C.3     1  LIG1       -0.0365
     22 H           4.7533   -1.6948    0.5461 H       1  LIG1        0.0279
     23 H           3.9034   -1.4914   -0.9670 H       1  LIG1        0.0279
     24 H           3.0656   -1.2420    0.5460 H       1  LIG1        0.0279
     25 C           6.7708   -0.0429    0.0195 C.1     1  LIG1       -0.0672
     26 C           7.7885   -0.6810    0.0302 C.1     1  LIG1       -0.1138
     27 H           8.6950   -1.2494    0.0398 H       1  LIG1        0.1232
     28 C           6.5000    2.9149   -0.0291 C.ar    1  LIG1        0.0648
     29 C           7.8541    2.7957   -0.0393 C.ar    1  LIG1       -0.0314
     30 C           8.3999    4.1195   -0.0528 C.ar    1  LIG1       -0.0231
     31 C           7.3554    4.9895   -0.0519 C.ar    1  LIG1        0.0663
     32 N           6.1903    4.2563   -0.0370 N.ar    1  LIG1       -0.3516
     33 H           5.2714    4.6352   -0.0331 H       1  LIG1        0.1660
     34 H           8.5262    1.6829   -0.0359 H       1  LIG1        0.0642
     35 C           9.6613    4.4352   -0.0642 C.3     1  LIG1       -0.0376
     36 H           9.7995    5.3704    0.4371 H       1  LIG1        0.0278
     37 H           9.9987    4.5197   -1.0762 H       1  LIG1        0.0278
     38 H          10.2237    3.6753    0.4370 H       1  LIG1        0.0278
     39 C           7.3402    6.2894   -0.0615 C.ar    1  LIG1        0.0634
     40 C           8.3643    7.1833   -0.0683 C.ar    1  LIG1       -0.0321
     41 C           7.7878    8.4941   -0.0767 C.ar    1  LIG1       -0.0325
     42 C           6.4367    8.3435   -0.0763 C.ar    1  LIG1        0.0051
     43 N           6.1584    6.9953   -0.0666 N.ar    1  LIG1       -0.3593
     44 H           5.2485    6.5951   -0.0643 H       1  LIG1        0.1654
     45 H           5.4888    9.2331   -0.0824 H       1  LIG1        0.0809
     46 H           9.6324    6.8971   -0.0660 H       1  LIG1        0.0642
     47 C           8.4339    9.6225   -0.0838 C.3     1  LIG1       -0.0383
     48 H           7.8544   10.3685    0.4187 H       1  LIG1        0.0278
     49 H           8.6084    9.9273   -1.0946 H       1  LIG1        0.0278
     50 H           9.3707    9.5002    0.4186 H       1  LIG1        0.0278
@<TRIPOS>BOND
     1    49    47    1
     2    37    35    1
     3    23    21    1
     4    47    41    1
     5    47    50    1
     6    47    48    1
     7    45    42    1
     8    41    42   ar
     9    41    40   ar
    10    42    43   ar
    11    40    46    1
    12    40    39   ar
    13    43    44    1
    14    43    39   ar
    15    35    30    1
    16    35    38    1
    17    35    36    1
    18    39    31    1
    19    30    31   ar
    20    30    29   ar
    21    31    32   ar
    22    29    34    1
    23    29    28   ar
    24    32    33    1
    25    32    28   ar
    26    20    19    1
    27    28    18    1
    28    19    18   ar
    29    19    15   ar
    30    18    17   ar
    31    13    14    3
    32    14     7    1
    33     7     6   ar
    34     7     4   ar
    35    15     4    1
    36    15    16   ar
    37     6     8    1
    38     6     3   ar
    39     4     2   ar
    40     2     1   ar
    41     2     5    1
    42     3     1   ar
    43     3     9    1
    44     1    10    1
    45    10    11    3
    46    11    12    1
    47    17    16   ar
    48    17    25    1
    49    16    21    1
    50    25    26    3
    51    26    27    1
    52    21    24    1
    53    21    22    1
