@<TRIPOS>MOLECULE
mol_data/noopt/geoms/mol2/4ed12ee-6ih-6il.out
 56 59 0 0 0
SMALL
GASTEIGER

@<TRIPOS>ATOM
      1 C           0.0509    0.0309    0.0002 C.ar    1  LIG1        0.0254
      2 C           1.4592    0.0309    0.0002 C.ar    1  LIG1       -0.0344
      3 C          -0.6045    1.2792    0.0002 C.ar    1  LIG1       -0.0451
      4 C           2.1849    1.2200   -0.0004 C.ar    1  LIG1        0.0370
      5 H           1.9850   -0.9213    0.0004 H       1  LIG1        0.0637
      6 C           0.1195    2.4666   -0.0004 C.ar    1  LIG1       -0.0425
      7 C           1.5181    2.4458   -0.0008 C.ar    1  LIG1        0.0625
      8 H          -0.4090    3.4165   -0.0003 H       1  LIG1        0.0631
      9 H          -1.9035    1.3287    0.0016 H       1  LIG1        0.0630
     10 C          -0.5708   -1.1108    0.0005 C.1     1  LIG1       -0.0696
     11 C          -1.1453   -2.1657    0.0008 C.1     1  LIG1       -0.1139
     12 H          -1.6571   -3.1054    0.0010 H       1  LIG1        0.1232
     13 N           2.7818    4.5408   -0.0016 N.1     1  LIG1       -0.1908
     14 C           2.1896    3.5590   -0.0012 C.1     1  LIG1        0.0999
     15 C           3.4844    1.1831   -0.0005 C.ar    1  LIG1        0.1535
     16 C           4.4399    0.1882    0.0142 C.ar    1  LIG1        0.0864
     17 C           5.7279    0.8500    0.0034 C.ar    1  LIG1        0.0864
     18 C           5.4738    2.2059   -0.0172 C.ar    1  LIG1        0.1540
     19 O           4.0977    2.4365   -0.0202 O.2     1  LIG1       -0.4522
     20 C           4.2495   -1.0976    0.0341 C.1     1  LIG1       -0.0646
     21 C           4.0736   -2.2857    0.0524 C.1     1  LIG1       -0.1138
     22 H           3.9169   -3.3441    0.0687 H       1  LIG1        0.1232
     23 C           6.8846    0.2567    0.0119 C.1     1  LIG1       -0.0646
     24 C           7.9534   -0.2915    0.0198 C.1     1  LIG1       -0.1138
     25 H           8.9054   -0.7799    0.0267 H       1  LIG1        0.1232
     26 C           5.5901    4.5517   -0.0643 C.ar    1  LIG1        0.0497
     27 C           6.1999    3.2842   -0.0341 C.ar    1  LIG1        0.0413
     28 C           7.5942    3.2152   -0.0224 C.ar    1  LIG1       -0.0265
     29 C           8.3259    4.4038   -0.0414 C.ar    1  LIG1        0.0516
     30 C           7.6251    5.6235   -0.0715 C.ar    1  LIG1        0.0937
     31 N           6.2805    5.7083   -0.0829 N.ar    1  LIG1       -0.2493
     32 H           8.1061    2.2428    0.0001 H       1  LIG1        0.0644
     33 C           4.2950    4.6673   -0.0761 C.3     1  LIG1       -0.0216
     34 H           3.8575    3.8292    0.4251 H       1  LIG1        0.0293
     35 H           3.9488    4.6981   -1.0881 H       1  LIG1        0.0293
     36 H           4.0129    5.5696    0.4250 H       1  LIG1        0.0293
     37 N           9.6259    4.3930   -0.0318 N.pl3   1  LIG1       -0.3563
     38 H           9.9558    3.5737   -0.5007 H       1  LIG1        0.1424
     39 H           9.9695    5.2066   -0.5008 H       1  LIG1        0.1424
     40 C           7.5520    7.9713   -0.0998 C.ar    1  LIG1        0.0477
     41 C           8.2619    6.7567   -0.0899 C.ar    1  LIG1        0.0266
     42 C           9.6573    6.7999   -0.1000 C.ar    1  LIG1       -0.0075
     43 C          10.2909    8.0436   -0.1196 C.ar    1  LIG1        0.1387
     44 C           9.4941    9.2031   -0.1285 C.ar    1  LIG1        0.0695
     45 N           8.1469    9.1798   -0.1188 N.ar    1  LIG1       -0.2559
     46 H          10.2459    5.8716   -0.0937 H       1  LIG1        0.0662
     47 H          10.0375   10.3839   -0.1466 H       1  LIG1        0.0867
     48 C           6.2517    7.9825   -0.0910 C.3     1  LIG1       -0.0217
     49 H           5.8909    7.1119    0.4158 H       1  LIG1        0.0293
     50 H           5.8882    7.9856   -1.0974 H       1  LIG1        0.0293
     51 H           5.9061    8.8592    0.4158 H       1  LIG1        0.0293
     52 O          11.5875    8.1372   -0.1298 O.3     1  LIG1       -0.4936
     53 C          12.1606    6.8271   -0.1336 C.3     1  LIG1        0.0789
     54 H          13.2277    6.9045   -0.1422 H       1  LIG1        0.0660
     55 H          11.8484    6.2986    0.7429 H       1  LIG1        0.0660
     56 H          11.8345    6.2976   -1.0044 H       1  LIG1        0.0660
@<TRIPOS>BOND
     1    50    48    1
     2    35    33    1
     3    56    53    1
     4    39    37    1
     5    38    37    1
     6    47    44    1
     7    54    53    1
     8    53    52    1
     9    53    55    1
    10    52    43    1
    11    44    43   ar
    12    44    45   ar
    13    43    42   ar
    14    45    40   ar
    15    42    46    1
    16    42    41   ar
    17    40    48    1
    18    40    41   ar
    19    48    51    1
    20    48    49    1
    21    41    30    1
    22    31    30   ar
    23    31    26   ar
    24    33    26    1
    25    33    36    1
    26    33    34    1
    27    30    29   ar
    28    26    27   ar
    29    29    37    1
    30    29    28   ar
    31    27    28   ar
    32    27    18    1
    33    28    32    1
    34    19    18   ar
    35    19    15   ar
    36    18    17   ar
    37    13    14    3
    38    14     7    1
    39     7     4   ar
    40     7     6   ar
    41    15     4    1
    42    15    16   ar
    43     4     2   ar
    44     6     8    1
    45     6     3   ar
    46     2     1   ar
    47     2     5    1
    48     3     1   ar
    49     3     9    1
    50     1    10    1
    51    10    11    3
    52    11    12    1
    53    17    23    1
    54    17    16   ar
    55    23    24    3
    56    16    20    1
    57    24    25    1
    58    20    21    3
    59    21    22    1
