@<TRIPOS>MOLECULE
mol_data/noopt/geoms/mol2/4ed13dl-13li-4ll.out
 61 59 0 0 0
SMALL
GASTEIGER

@<TRIPOS>ATOM
      1 C           0.0509    0.0309    0.0002 C.ar    1  LIG1        0.0254
      2 C           1.4592    0.0309    0.0002 C.ar    1  LIG1       -0.0359
      3 C          -0.6045    1.2792    0.0002 C.ar    1  LIG1       -0.0451
      4 C           2.1849    1.2200   -0.0004 C.ar    1  LIG1        0.0181
      5 H           1.9850   -0.9213    0.0004 H       1  LIG1        0.0637
      6 C           0.1195    2.4666   -0.0004 C.ar    1  LIG1       -0.0426
      7 C           1.5181    2.4458   -0.0008 C.ar    1  LIG1        0.0610
      8 H          -0.4090    3.4165   -0.0003 H       1  LIG1        0.0631
      9 H          -1.9035    1.3287    0.0016 H       1  LIG1        0.0630
     10 C          -0.5708   -1.1108    0.0005 C.1     1  LIG1       -0.0696
     11 C          -1.1453   -2.1657    0.0008 C.1     1  LIG1       -0.1139
     12 H          -1.6571   -3.1054    0.0010 H       1  LIG1        0.1232
     13 N           2.7818    4.5408   -0.0016 N.1     1  LIG1       -0.1908
     14 C           2.1896    3.5590   -0.0012 C.1     1  LIG1        0.0998
     15 C           3.4844    1.1831   -0.0005 C.ar    1  LIG1        0.0664
     16 C           4.3366    0.1241    0.0157 C.ar    1  LIG1        0.0854
     17 C           5.6695    0.6477    0.0079 C.ar    1  LIG1        0.0303
     18 C           5.5731    2.0035   -0.0145 C.ar    1  LIG1        0.0764
     19 N           4.2371    2.3356   -0.0192 N.ar    1  LIG1       -0.3514
     20 H           3.8736    3.2606   -0.0344 H       1  LIG1        0.1660
     21 N           3.7029   -2.2386    0.0541 N.1     1  LIG1       -0.1908
     22 C           3.9999   -1.1313    0.0361 C.1     1  LIG1        0.1019
     23 O           6.7709   -0.0429    0.0195 O.3     1  LIG1       -0.2383
     24 C           6.4591   -1.4385    0.0237 C.3     2  LIG2       -0.0681
     25 H           7.3659   -2.0065    0.0331 H       2  LIG2        0.0227
     26 H           5.8826   -1.6726    0.8942 H       2  LIG2        0.0227
     27 H           5.8956   -1.6808   -0.8530 H       2  LIG2        0.0227
     28 CA          6.5000    2.9149   -0.0291 C.2     1  LIG1        0.1149
     29 C           7.8541    2.7957   -0.0393 C.2     1  LIG1        0.2525
     30 C           8.3999    4.1195   -0.0528 C.3     1  LIG1        0.0499
     31 C           7.3554    4.9895   -0.0519 C.2     1  LIG1        0.0366
     32 N           6.1903    4.2563   -0.0370 N.2     1  LIG1       -0.3526
     33 H           5.2714    4.6352   -0.0331 H       1  LIG1        0.1658
     34 O           8.5262    1.6829   -0.0359 O.2     1  LIG1       -0.2815
     35 C           7.6191    0.5774   -0.0347 C.3     1  LIG1        0.0718
     36 H           8.1727   -0.3383   -0.0320 H       1  LIG1        0.0555
     37 H           7.0018    0.6235    0.8381 H       1  LIG1        0.0555
     38 H           7.0041    0.6197   -0.9091 H       1  LIG1        0.0555
     39 C           9.6613    4.4352   -0.0642 C.3     3  LIG3       -0.0681
     40 H           9.7995    5.3704    0.4371 H       4  LIG4        0.0227
     41 H           9.9987    4.5197   -1.0762 H       3  LIG3        0.0227
     42 H          10.2237    3.6753    0.4370 H       3  LIG3        0.0227
     43 C           8.5544    7.0060   -0.0659 C.ar    1  LIG1        0.1880
     44 C           8.4843    8.4125   -0.0747 C.ar    1  LIG1       -0.0108
     45 C           7.3402    6.2893   -0.0615 C.ar    1  LIG1        0.0449
     46 C           7.2606    9.0782   -0.0796 C.ar    1  LIG1       -0.0163
     47 H           9.4092    8.9850   -0.0780 H       1  LIG1        0.0657
     48 C           6.1183    6.9534   -0.0663 C.ar    1  LIG1       -0.0075
     49 C           6.0695    8.3512   -0.0755 C.ar    1  LIG1        0.1209
     50 H           5.1958    6.3783   -0.0627 H       1  LIG1        0.0662
     51 H           7.2328   10.3779   -0.0878 H       1  LIG1        0.0655
     52 O           9.7256    6.4418   -0.0619 O.3     1  LIG1       -0.2872
     53 C           9.5706    5.0202   -0.0606 C.3     4  LIG4       -0.0681
     54 H          10.5347    4.5562   -0.0575 H       3  LIG3        0.0227
     55 H           9.0282    4.7214    0.8121 H       4  LIG4        0.0227
     56 H           9.0327    4.7192   -0.9352 H       4  LIG4        0.0227
     57 O           4.9243    8.9665   -0.0798 O.3     1  LIG1       -0.4951
     58 C           5.1418   10.3799   -0.0815 C.3     1  LIG1        0.0788
     59 H           4.1990   10.8859   -0.0852 H       1  LIG1        0.0660
     60 H           5.6919   10.6571    0.7934 H       1  LIG1        0.0660
     61 H           5.6973   10.6542   -0.9538 H       1  LIG1        0.0660
@<TRIPOS>BOND
     1    41    39    1
     2    61    58    1
     3    56    53    1
     4    38    35    1
     5    27    24    1
     6    51    46    1
     7    59    58    1
     8    58    57    1
     9    58    60    1
    10    57    49    1
    11    46    49   ar
    12    46    44   ar
    13    47    44    1
    14    49    48   ar
    15    44    43   ar
    16    48    50    1
    17    48    45   ar
    18    43    52    1
    19    43    45   ar
    20    39    54    1
    21    39    42    1
    22    45    31    1
    23    53    40    1
    24    53    55    1
    25    30    31    1
    26    31    32    2
    27    29    34    1
    28    29    28    2
    29    32    33    1
    30    32    28    1
    31    35    36    1
    32    35    23    1
    33    35    37    1
    34    20    19    1
    35    28    18    1
    36    19    18   ar
    37    19    15   ar
    38    18    17   ar
    39    13    14    3
    40    14     7    1
    41     7     6   ar
    42     7     4   ar
    43    15     4    1
    44    15    16   ar
    45     6     8    1
    46     6     3   ar
    47     4     2   ar
    48     3     1   ar
    49     3     9    1
    50     2     1   ar
    51     2     5    1
    52     1    10    1
    53    10    11    3
    54    11    12    1
    55    17    16   ar
    56    16    22    1
    57    24    25    1
    58    24    26    1
    59    22    21    3
