@<TRIPOS>MOLECULE
mol_data/noopt/geoms/mol2/4ed13ef13el(20)6id(160).out
 53 56 0 0 0
SMALL
GASTEIGER

@<TRIPOS>ATOM
      1 C           0.0509    0.0309    0.0002 C.ar    1  LIG1        0.0254
      2 C           1.4592    0.0309    0.0002 C.ar    1  LIG1       -0.0359
      3 C          -0.6045    1.2792    0.0002 C.ar    1  LIG1       -0.0451
      4 C           2.1849    1.2200   -0.0004 C.ar    1  LIG1        0.0181
      5 H           1.9850   -0.9213    0.0004 H       1  LIG1        0.0637
      6 C           0.1195    2.4666   -0.0004 C.ar    1  LIG1       -0.0426
      7 C           1.5181    2.4458   -0.0008 C.ar    1  LIG1        0.0610
      8 H          -0.4090    3.4165   -0.0003 H       1  LIG1        0.0631
      9 H          -1.9035    1.3287    0.0016 H       1  LIG1        0.0630
     10 C          -0.5708   -1.1108    0.0005 C.1     1  LIG1       -0.0696
     11 C          -1.1453   -2.1657    0.0008 C.1     1  LIG1       -0.1139
     12 H          -1.6571   -3.1054    0.0010 H       1  LIG1        0.1232
     13 N           2.7818    4.5408   -0.0016 N.1     1  LIG1       -0.1908
     14 C           2.1896    3.5590   -0.0012 C.1     1  LIG1        0.0998
     15 C           3.4844    1.1831   -0.0005 C.ar    1  LIG1        0.0674
     16 C           4.3366    0.1240   -0.0009 C.ar    1  LIG1        0.0920
     17 C           5.6695    0.6476    0.0003 C.ar    1  LIG1        0.1595
     18 C           5.5731    2.0036   -0.0004 C.ar    1  LIG1        0.1079
     19 N           4.2371    2.3357   -0.0004 N.ar    1  LIG1       -0.3490
     20 H           3.8737    3.2609   -0.0009 H       1  LIG1        0.1661
     21 C           3.9999   -1.1316   -0.0008 C.1     1  LIG1       -0.0638
     22 C           3.6887   -2.2918   -0.0007 C.1     1  LIG1       -0.1137
     23 H           3.4115   -3.3253   -0.0006 H       1  LIG1        0.1232
     24 O           6.7709   -0.0431    0.0013 O.3     1  LIG1       -0.5034
     25 H           7.5231    0.5534    0.0016 H       1  LIG1        0.2923
     26 C           6.5000    2.9152    0.0001 C.ar    1  LIG1        0.0862
     27 C           7.8166    2.8340    0.3285 C.ar    1  LIG1        0.0937
     28 C           8.3825    4.1376    0.1521 C.ar    1  LIG1        0.1613
     29 C           7.3873    4.9576   -0.2781 C.ar    1  LIG1        0.0922
     30 N           6.2329    4.2133   -0.3721 N.ar    1  LIG1       -0.3490
     31 H           5.3473    4.5584   -0.6631 H       1  LIG1        0.1661
     32 C           8.4428    1.7679    0.7301 C.1     1  LIG1       -0.0638
     33 C           9.0214    0.7827    1.1011 C.1     1  LIG1       -0.1137
     34 H           9.5367   -0.0948    1.4316 H       1  LIG1        0.1232
     35 O           9.6194    4.4778    0.3629 O.3     1  LIG1       -0.4917
     36 C          10.4311    3.3030    0.4402 C.3     1  LIG1        0.0789
     37 H          11.4490    3.5835    0.6135 H       1  LIG1        0.0660
     38 H          10.0894    2.6857    1.2446 H       1  LIG1        0.0660
     39 H          10.3622    2.7607   -0.4796 H       1  LIG1        0.0660
     40 C           8.5556    6.8037   -1.1413 C.ar    1  LIG1        0.0475
     41 C           7.4060    6.2231   -0.5749 C.ar    1  LIG1        0.0242
     42 C           6.2946    7.0352   -0.3421 C.ar    1  LIG1       -0.0319
     43 C           6.3681    8.3877   -0.6796 C.ar    1  LIG1        0.0705
     44 C           7.5622    8.8757   -1.2413 C.ar    1  LIG1        0.0452
     45 N           8.6438    8.1064   -1.4730 N.ar    1  LIG1       -0.2582
     46 H           5.3790    6.6173    0.1000 H       1  LIG1        0.0638
     47 H           7.6791   10.1274   -1.5722 H       1  LIG1        0.0843
     48 C           9.6155    6.0884   -1.3771 C.3     1  LIG1       -0.0217
     49 H          10.4708    6.5651   -0.9457 H       1  LIG1        0.0293
     50 H           9.7547    5.9945   -2.4339 H       1  LIG1        0.0293
     51 H           9.4933    5.1168   -0.9457 H       1  LIG1        0.0293
     52 N           4.4720    9.8887   -0.3084 N.1     1  LIG1       -0.1908
     53 C           5.3606    9.1853   -0.4824 C.1     1  LIG1        0.1007
@<TRIPOS>BOND
     1    50    48    1
     2    47    44    1
     3    45    44   ar
     4    45    40   ar
     5    48    40    1
     6    48    51    1
     7    48    49    1
     8    44    43   ar
     9    40    41   ar
    10    43    53    1
    11    43    42   ar
    12    31    30    1
    13    41    42   ar
    14    41    29    1
    15    53    52    3
    16    39    36    1
    17    30    29   ar
    18    30    26   ar
    19    42    46    1
    20    29    28   ar
    21    13    14    3
    22    14     7    1
    23    16    21    1
    24    16    15   ar
    25    16    17   ar
    26    20    19    1
    27    21    22    3
    28     7     4   ar
    29     7     6   ar
    30    22    23    1
    31    15     4    1
    32    15    19   ar
    33     4     2   ar
    34     6     8    1
    35     6     3   ar
    36    19    18   ar
    37    18    26    1
    38    18    17   ar
    39    26    27   ar
    40     1     2   ar
    41     1     3   ar
    42     1    10    1
    43     2     5    1
    44     3     9    1
    45    17    24    1
    46    10    11    3
    47    11    12    1
    48    24    25    1
    49    28    27   ar
    50    28    35    1
    51    27    32    1
    52    35    36    1
    53    36    37    1
    54    36    38    1
    55    32    33    3
    56    33    34    1
