@<TRIPOS>MOLECULE
mol_data/noopt/geoms/mol2/4ed4li(110)12ii(130)6dl(340).out
 59 62 0 0 0
SMALL
GASTEIGER

@<TRIPOS>ATOM
      1 C           0.0509    0.0309    0.0002 C.ar    1  LIG1        0.0253
      2 C           1.4592    0.0309    0.0002 C.ar    1  LIG1       -0.0373
      3 C          -0.6045    1.2792    0.0002 C.ar    1  LIG1       -0.0451
      4 C           2.1849    1.2200   -0.0004 C.ar    1  LIG1        0.0041
      5 H           1.9850   -0.9213    0.0004 H       1  LIG1        0.0636
      6 C           0.1195    2.4666   -0.0004 C.ar    1  LIG1       -0.0426
      7 C           1.5181    2.4458   -0.0008 C.ar    1  LIG1        0.0596
      8 H          -0.4090    3.4165   -0.0003 H       1  LIG1        0.0631
      9 H          -1.9035    1.3287    0.0016 H       1  LIG1        0.0630
     10 C          -0.5708   -1.1108    0.0005 C.1     1  LIG1       -0.0696
     11 C          -1.1453   -2.1657    0.0008 C.1     1  LIG1       -0.1139
     12 H          -1.6571   -3.1054    0.0010 H       1  LIG1        0.1232
     13 N           2.7818    4.5408   -0.0016 N.1     1  LIG1       -0.1909
     14 C           2.1896    3.5590   -0.0012 C.1     1  LIG1        0.0998
     15 C           4.1985    1.5818    1.1479 C.ar    1  LIG1        0.1285
     16 C           5.6047    1.5250    1.0969 C.ar    1  LIG1       -0.0084
     17 C           3.4843    1.1831   -0.0005 C.ar    1  LIG1        0.0253
     18 C           6.2724    1.0901   -0.0458 C.ar    1  LIG1        0.0239
     19 H           6.1753    1.8282    1.9719 H       1  LIG1        0.0661
     20 C           4.1504    0.7489   -1.1415 C.ar    1  LIG1       -0.0469
     21 C           5.5480    0.6991   -1.1725 C.ar    1  LIG1       -0.0390
     22 H           3.5773    0.4468   -2.0143 H       1  LIG1        0.0628
     23 O           3.6322    1.9961    2.2424 O.3     1  LIG1       -0.4945
     24 C           4.2203    3.2361    2.6442 C.3     1  LIG1        0.0788
     25 H           3.7538    3.5768    3.5449 H       1  LIG1        0.0660
     26 H           5.2671    3.0955    2.8157 H       1  LIG1        0.0660
     27 H           4.0800    3.9640    1.8726 H       1  LIG1        0.0660
     28 C           6.1653    0.2924   -2.2422 C.3     1  LIG1       -0.0390
     29 H           7.1618    0.6821   -2.2488 H       1  LIG1        0.0278
     30 H           5.6417    0.6375   -3.1092 H       1  LIG1        0.0278
     31 H           6.2005   -0.7770   -2.2488 H       1  LIG1        0.0278
     32 C           7.5717    1.0501   -0.0582 C.ar    1  LIG1        0.1392
     33 C           8.5819    1.6886    0.6311 C.ar    1  LIG1       -0.0012
     34 C           9.8302    1.1670    0.1149 C.ar    1  LIG1       -0.0011
     35 C           9.5000    0.2439   -0.8559 C.ar    1  LIG1        0.1417
     36 O           8.1132    0.1541   -0.9810 O.2     1  LIG1       -0.4542
     37 C           8.4645    2.5858    1.5649 C.3     1  LIG1       -0.0358
     38 H           7.6130    2.3594    2.1721 H       1  LIG1        0.0279
     39 H           8.3382    3.5503    1.1190 H       1  LIG1        0.0279
     40 H           9.3456    2.5861    2.1720 H       1  LIG1        0.0279
     41 C          11.0188    1.5183    0.5084 C.3     1  LIG1       -0.0358
     42 H          10.9508    2.4092    1.0971 H       1  LIG1        0.0279
     43 H          11.6375    1.7012   -0.3452 H       1  LIG1        0.0279
     44 H          11.4460    0.7335    1.0970 H       1  LIG1        0.0279
     45 C          11.5614   -0.4193   -1.7663 C.ar    1  LIG1        0.1509
     46 C          10.1638   -0.5367   -1.6559 C.ar    1  LIG1        0.0568
     47 C           9.5136   -1.5062   -2.4216 C.ar    1  LIG1       -0.0050
     48 C          10.2744   -2.3184   -3.2644 C.ar    1  LIG1        0.1389
     49 C          11.6673   -2.1246   -3.3061 C.ar    1  LIG1        0.0707
     50 N          12.3108   -1.1943   -2.5742 N.ar    1  LIG1       -0.2403
     51 H           8.4226   -1.6268   -2.3626 H       1  LIG1        0.0662
     52 H          12.4182   -2.8558   -4.0751 H       1  LIG1        0.0867
     53 N          12.7851    1.2509   -0.4628 N.1     1  LIG1       -0.1893
     54 C          12.2116    0.4681   -1.0737 C.1     1  LIG1        0.1198
     55 O           9.7162   -3.2354   -3.9977 O.3     1  LIG1       -0.4936
     56 C           8.3599   -2.8711   -4.2670 C.3     1  LIG1        0.0789
     57 H           7.9009   -3.6260   -4.8706 H       1  LIG1        0.0660
     58 H           7.8255   -2.7785   -3.3445 H       1  LIG1        0.0660
     59 H           8.3381   -1.9364   -4.7872 H       1  LIG1        0.0660
@<TRIPOS>BOND
     1    57    56    1
     2    59    56    1
     3    56    55    1
     4    56    58    1
     5    52    49    1
     6    55    48    1
     7    49    48   ar
     8    49    50   ar
     9    48    47   ar
    10    30    28    1
    11    50    45   ar
    12    47    51    1
    13    47    46   ar
    14    29    28    1
    15    31    28    1
    16    28    21    1
    17    22    20    1
    18    45    46   ar
    19    45    54    1
    20    46    35    1
    21    21    20   ar
    22    21    18   ar
    23    20    17   ar
    24    54    53    3
    25    36    35   ar
    26    36    32   ar
    27    35    34   ar
    28    43    41    1
    29    32    18    1
    30    32    33   ar
    31    18    16   ar
    32    13    14    3
    33    14     7    1
    34     7     6   ar
    35     7     4   ar
    36    17     4    1
    37    17    15   ar
    38     6     8    1
    39     6     3   ar
    40     4     2   ar
    41     2     1   ar
    42     2     5    1
    43     3     1   ar
    44     3     9    1
    45     1    10    1
    46    10    11    3
    47    11    12    1
    48    34    41    1
    49    34    33   ar
    50    41    44    1
    51    41    42    1
    52    33    37    1
    53    16    15   ar
    54    16    19    1
    55    39    37    1
    56    15    23    1
    57    37    40    1
    58    37    38    1
    59    27    24    1
    60    23    24    1
    61    24    26    1
    62    24    25    1
