@<TRIPOS>MOLECULE
mol_data/noopt/geoms/mol2/4ed6ld-13ff-13fe6ie6ee4fe6lf-.out
 104 113 0 0 0
SMALL
GASTEIGER

@<TRIPOS>ATOM
      1 C           0.0509    0.0309    0.0002 C.ar    1  LIG1        0.0253
      2 C           1.4592    0.0309    0.0002 C.ar    1  LIG1       -0.0381
      3 C          -0.6045    1.2792    0.0002 C.ar    1  LIG1       -0.0460
      4 C           2.1849    1.2200   -0.0004 C.ar    1  LIG1       -0.0063
      5 H           1.9850   -0.9213    0.0004 H       1  LIG1        0.0636
      6 C           0.1195    2.4666   -0.0004 C.ar    1  LIG1       -0.0548
      7 C           1.5181    2.4458   -0.0008 C.ar    1  LIG1       -0.0116
      8 H          -0.4090    3.4165   -0.0003 H       1  LIG1        0.0621
      9 H          -1.9035    1.3287    0.0016 H       1  LIG1        0.0630
     10 C          -0.5708   -1.1108    0.0005 C.1     1  LIG1       -0.0696
     11 C          -1.1453   -2.1657    0.0008 C.1     1  LIG1       -0.1139
     12 H          -1.6571   -3.1054    0.0010 H       1  LIG1        0.1232
     13 N           2.7818    4.5408   -0.0016 N.4     1  LIG1       -0.1283
     14 C           2.1896    3.5590   -0.0012 C.3     1  LIG1        0.1379
     15 C           4.2297    2.3762   -0.0216 C.ar    1  LIG1        0.2476
     16 C           3.4844    1.1831   -0.0005 C.ar    1  LIG1        0.0474
     17 C           4.1715   -0.0320    0.0205 C.ar    1  LIG1       -0.0293
     18 C           5.5674   -0.0147    0.0195 C.ar    1  LIG1        0.0800
     19 C           6.2235    1.2297   -0.0026 C.ar    1  LIG1        0.1120
     20 N           5.5764    2.4113   -0.0228 N.ar    1  LIG1       -0.2078
     21 H           3.6233   -0.9846    0.0362 H       1  LIG1        0.0639
     22 O           3.6351    3.5321   -0.0414 O.3     1  LIG1       -0.3826
     23 C           4.6156    4.5731   -0.0488 C.3     1  LIG1        0.0249
     24 H           4.1258    5.5243   -0.0653 H       1  LIG1        0.0424
     25 H           5.2211    4.4989    0.8303 H       1  LIG1        0.0424
     26 H           5.2335    4.4750   -0.9168 H       1  LIG1        0.0424
     27 N           6.8580   -2.0929    0.0549 N.1     1  LIG1       -0.1908
     28 C           6.2531   -1.1189    0.0383 C.1     1  LIG1        0.1014
     29 C           7.5217    1.2976   -0.0044 C.ar    1  LIG1        0.1126
     30 C           8.4565    0.3107    0.0107 C.ar    1  LIG1        0.1864
     31 C           9.7428    0.9399    0.0013 C.ar    1  LIG1        0.1864
     32 C           9.5376    2.2836   -0.0209 C.ar    1  LIG1        0.1128
     33 N           8.1791    2.5069   -0.0240 N.ar    1  LIG1       -0.3458
     34 H           7.7424    3.3997   -0.0387 H       1  LIG1        0.1662
     35 O           8.2220   -0.9678    0.0315 O.3     1  LIG1       -0.5019
     36 H           9.0543   -1.4462    0.0366 H       1  LIG1        0.2924
     37 O          10.8963    0.3403    0.0115 O.3     1  LIG1       -0.5019
     38 H          11.5980    0.9954    0.0140 H       1  LIG1        0.2924
     39 C          10.3880    3.2667   -0.0366 C.ar    1  LIG1        0.1103
     40 C          11.7474    3.2571   -0.0311 C.ar    1  LIG1        0.1596
     41 C          12.1848    4.6205   -0.0547 C.ar    1  LIG1        0.0920
     42 C          11.0735    5.4032   -0.0754 C.ar    1  LIG1        0.0679
     43 N           9.9713    4.5784   -0.0640 N.ar    1  LIG1       -0.3490
     44 H           9.0248    4.8819   -0.0745 H       1  LIG1        0.1661
     45 O          12.5070    2.2024   -0.0070 O.3     1  LIG1       -0.5034
     46 H          13.4285    2.4713   -0.0011 H       1  LIG1        0.2923
     47 C          13.4163    5.0368   -0.0565 C.1     1  LIG1       -0.0638
     48 C          14.5542    5.4215   -0.0582 C.1     1  LIG1       -0.1137
     49 H          15.5679    5.7642   -0.0597 H       1  LIG1        0.1232
     50 C           9.6793    7.2934   -0.1145 C.ar    1  LIG1        0.0481
     51 C          10.9536    6.6974   -0.1008 C.ar    1  LIG1        0.0218
     52 C          12.0773    7.5258   -0.1147 C.ar    1  LIG1       -0.0334
     53 C          11.8920    8.9091   -0.1418 C.ar    1  LIG1        0.0513
     54 C          10.5774    9.4105   -0.1540 C.ar    1  LIG1        0.0893
     55 N           9.4822    8.6258   -0.1407 N.ar    1  LIG1       -0.2499
     56 H          13.0891    7.0964   -0.1057 H       1  LIG1        0.0637
     57 C           8.6029    6.5639   -0.1023 C.3     1  LIG1       -0.0217
     58 H           8.8018    5.6433    0.4054 H       1  LIG1        0.0293
     59 H           8.2999    6.3585   -1.1078 H       1  LIG1        0.0293
     60 H           7.8215    7.0897    0.4054 H       1  LIG1        0.0293
     61 C          12.9058    9.7228   -0.1559 C.1     1  LIG1       -0.0675
     62 C          13.8425   10.4746   -0.1688 C.1     1  LIG1       -0.1138
     63 H          14.6769   11.1443   -0.1804 H       1  LIG1        0.1232
     64 C           9.0355   11.1822   -0.1927 C.ar    1  LIG1        0.1231
     65 C          10.3537   10.6908   -0.1791 C.ar    1  LIG1        0.0366
     66 C          11.4070   11.6070   -0.1929 C.ar    1  LIG1       -0.0324
     67 C          11.1109   12.9709   -0.2197 C.ar    1  LIG1        0.0514
     68 C           9.7602   13.3648   -0.2317 C.ar    1  LIG1        0.0912
     69 N           8.7317   12.4944   -0.2185 N.ar    1  LIG1       -0.2364
     70 H          12.4501   11.2605   -0.1839 H       1  LIG1        0.0638
     71 C           8.0217   10.3686   -0.1806 C.1     1  LIG1       -0.0491
     72 C           7.0849    9.6168   -0.1695 C.1     1  LIG1       -0.1124
     73 H           6.2505    8.9471   -0.1595 H       1  LIG1        0.1232
     74 C          12.0558   13.8636   -0.2336 C.1     1  LIG1       -0.0675
     75 C          12.9289   14.6885   -0.2464 C.1     1  LIG1       -0.1138
     76 H          13.7066   15.4233   -0.2578 H       1  LIG1        0.1232
     77 C          10.4411   15.6095   -0.2692 C.ar    1  LIG1        0.1266
     78 C          10.0361   16.9581   -0.2945 C.ar    1  LIG1       -0.0114
     79 C           9.4340   14.6229   -0.2565 C.ar    1  LIG1        0.0433
     80 C           8.6886   17.3110   -0.3074 C.ar    1  LIG1       -0.0053
     81 H          10.7969   17.7354   -0.3045 H       1  LIG1        0.0660
     82 C           8.0886   14.9746   -0.2694 C.ar    1  LIG1       -0.0445
     83 C           7.7063   16.3199   -0.2949 C.ar    1  LIG1       -0.0270
     84 H           7.3308   14.1954   -0.2591 H       1  LIG1        0.0628
     85 O          11.7134   15.3425   -0.2585 O.3     1  LIG1       -0.5061
     86 H          12.2128   16.1623   -0.2558 H       1  LIG1        0.2922
     87 C           6.4471   16.6427   -0.3067 C.3     1  LIG1        0.0608
     88 C           5.2836   16.9410   -0.3175 C.3     1  LIG1        0.1105
     89 H           4.2471   17.2067   -0.3272 H       1  LIG1        0.0740
     90 C           6.9933   18.9361   -0.3648 C.ar    1  LIG1        0.2231
     91 C           8.3502   18.5660   -0.3309 C.ar    1  LIG1        0.0475
     92 C           9.3162   19.5738   -0.3230 C.ar    1  LIG1       -0.0059
     93 C           8.8983   20.9054   -0.3491 C.ar    1  LIG1        0.1357
     94 C           7.5179   21.1755   -0.3824 C.ar    1  LIG1        0.0728
     95 N           6.5724   20.2156   -0.3903 N.ar    1  LIG1       -0.2172
     96 H          10.3862   19.3231   -0.2978 H       1  LIG1        0.0662
     97 H           7.0795   22.3990   -0.4074 H       1  LIG1        0.0868
     98 O           6.0573   18.0340   -0.3733 O.3     1  LIG1       -0.4720
     99 C           4.7782   18.6734   -0.3765 C.3     1  LIG1       -0.0268
    100 H           4.0081   17.9305   -0.3837 H       1  LIG1        0.0265
    101 H           4.6804   19.2799    0.4995 H       1  LIG1        0.0265
    102 H           4.6889   19.2881   -1.2477 H       1  LIG1        0.0265
    103 O           9.7586   21.8801   -0.3432 O.3     1  LIG1       -0.5052
    104 H           9.2921   22.7192   -0.3417 H       1  LIG1        0.2922
@<TRIPOS>BOND
     1   102    99    1
     2    59    57    1
     3    26    23    1
     4    97    94    1
     5    95    94   ar
     6    95    90   ar
     7   100    99    1
     8    94    93   ar
     9    99    88    1
    10    99   101    1
    11    98    90    1
    12    98    88    1
    13    90    91   ar
    14    93   103    1
    15    93    92   ar
    16   103   104    1
    17    91    92   ar
    18    91    80    1
    19    89    88    1
    20    92    96    1
    21    88    87    1
    22    80    83   ar
    23    80    78   ar
    24    87    83    1
    25    81    78    1
    26    83    82   ar
    27    78    77   ar
    28    82    84    1
    29    82    79   ar
    30    77    85    1
    31    77    79   ar
    32    85    86    1
    33    76    75    1
    34    79    68    1
    35    75    74    3
    36    74    67    1
    37    68    67   ar
    38    68    69   ar
    39    67    66   ar
    40    69    64   ar
    41    66    70    1
    42    66    65   ar
    43    64    71    1
    44    64    65   ar
    45    71    72    3
    46    63    62    1
    47    65    54    1
    48    72    73    1
    49    62    61    3
    50    61    53    1
    51    54    53   ar
    52    54    55   ar
    53    53    52   ar
    54    55    50   ar
    55    52    56    1
    56    52    51   ar
    57    50    57    1
    58    50    51   ar
    59    57    60    1
    60    57    58    1
    61    51    42    1
    62    42    43   ar
    63    42    41   ar
    64    44    43    1
    65    24    23    1
    66    43    39   ar
    67    49    48    1
    68    48    47    3
    69    47    41    1
    70    41    40   ar
    71    23    13    1
    72    23    25    1
    73    22    15    1
    74    22    13    1
    75    34    33    1
    76    39    40   ar
    77    39    32    1
    78    40    45    1
    79    33    32   ar
    80    33    29   ar
    81    20    15   ar
    82    20    19   ar
    83    15    16   ar
    84    32    31   ar
    85    45    46    1
    86    29    19    1
    87    29    30   ar
    88    19    18   ar
    89    13    14    1
    90    14     7    1
    91     7     6   ar
    92     7     4   ar
    93    16     4    1
    94    16    17   ar
    95     6     8    1
    96     6     3   ar
    97     4     2   ar
    98     3     1   ar
    99     3     9    1
   100     2     1   ar
   101     2     5    1
   102     1    10    1
   103    10    11    3
   104    11    12    1
   105    31    30   ar
   106    31    37    1
   107    30    35    1
   108    37    38    1
   109    18    17   ar
   110    18    28    1
   111    17    21    1
   112    35    36    1
   113    28    27    3
