@<TRIPOS>MOLECULE
mol_data/noopt/geoms/mol2/4ed6ei(120)6ai(290)12da(60).out
 49 52 0 0 0
SMALL
GASTEIGER

@<TRIPOS>ATOM
      1 C           0.0509    0.0309    0.0002 C.ar    1  LIG1        0.0253
      2 C           1.4592    0.0309    0.0002 C.ar    1  LIG1       -0.0373
      3 C          -0.6045    1.2792    0.0002 C.ar    1  LIG1       -0.0451
      4 C           2.1849    1.2200   -0.0004 C.ar    1  LIG1        0.0033
      5 H           1.9850   -0.9213    0.0004 H       1  LIG1        0.0636
      6 C           0.1195    2.4666   -0.0004 C.ar    1  LIG1       -0.0426
      7 C           1.5181    2.4458   -0.0008 C.ar    1  LIG1        0.0596
      8 H          -0.4090    3.4165   -0.0003 H       1  LIG1        0.0631
      9 H          -1.9035    1.3287    0.0016 H       1  LIG1        0.0630
     10 C          -0.5708   -1.1108    0.0005 C.1     1  LIG1       -0.0696
     11 C          -1.1453   -2.1657    0.0008 C.1     1  LIG1       -0.1139
     12 H          -1.6571   -3.1054    0.0010 H       1  LIG1        0.1232
     13 N           2.7818    4.5408   -0.0016 N.1     1  LIG1       -0.1909
     14 C           2.1896    3.5590   -0.0012 C.1     1  LIG1        0.0998
     15 C           4.1779    0.5559   -1.0517 C.ar    1  LIG1        0.1215
     16 C           3.4844    1.1831   -0.0005 C.ar    1  LIG1        0.0175
     17 C           4.2225    1.7606    1.0343 C.ar    1  LIG1       -0.0464
     18 C           5.6159    1.6926    0.9848 C.ar    1  LIG1       -0.0238
     19 C           6.2182    1.0434   -0.1085 C.ar    1  LIG1        0.0768
     20 N           5.5215    0.4812   -1.1154 N.ar    1  LIG1       -0.2375
     21 H           3.7155    2.2585    1.8729 H       1  LIG1        0.0628
     22 C           3.5348    0.0042   -2.0376 C.1     1  LIG1       -0.0492
     23 C           2.9406   -0.5057   -2.9486 C.1     1  LIG1       -0.1124
     24 H           2.4113   -0.9598   -3.7600 H       1  LIG1        0.1232
     25 C           6.3481    2.2147    1.9240 C.3     1  LIG1       -0.0377
     26 H           5.7451    2.8578    2.5305 H       1  LIG1        0.0278
     27 H           7.1422    2.7811    1.4839 H       1  LIG1        0.0278
     28 H           6.7596    1.4351    2.5304 H       1  LIG1        0.0278
     29 C           8.3277    1.3147    0.8888 C.ar    1  LIG1        0.0376
     30 C           7.5120    0.9545   -0.1994 C.ar    1  LIG1        0.0190
     31 C           8.1235    0.5021   -1.3700 C.ar    1  LIG1       -0.0461
     32 C           9.5166    0.4257   -1.4141 C.ar    1  LIG1       -0.0208
     33 C          10.2466    0.8088   -0.2740 C.ar    1  LIG1        0.1101
     34 N           9.6730    1.2472    0.8636 N.ar    1  LIG1       -0.2509
     35 H           7.5189    0.2127   -2.2412 H       1  LIG1        0.0628
     36 H           7.8050    1.7414    2.0000 H       1  LIG1        0.0836
     37 C          10.1337    0.0112   -2.4810 C.3     1  LIG1       -0.0376
     38 H          11.1337    0.3918   -2.4853 H       1  LIG1        0.0278
     39 H           9.6159    0.3591   -3.3504 H       1  LIG1        0.0278
     40 H          10.1591   -1.0585   -2.4853 H       1  LIG1        0.0278
     41 C          11.5455    0.7552   -0.2664 C.ar    1  LIG1        0.1704
     42 C          12.5013    0.1829    0.5472 C.ar    1  LIG1        0.0989
     43 C          13.7881    0.5144   -0.0282 C.ar    1  LIG1       -0.0058
     44 C          13.5332    1.2674   -1.1558 C.ar    1  LIG1        0.0939
     45 O          12.1575    1.4296   -1.3239 O.2     1  LIG1       -0.4601
     46 H          14.2580    1.8426   -2.0689 H       1  LIG1        0.1030
     47 N          12.1451   -1.1403    2.5740 N.1     1  LIG1       -0.1907
     48 C          12.3120   -0.5201    1.6242 C.1     1  LIG1        0.1030
     49 H          14.9447    0.1580    0.4465 H       1  LIG1        0.0662
@<TRIPOS>BOND
     1    24    23    1
     2    39    37    1
     3    23    22    3
     4    38    37    1
     5    40    37    1
     6    37    32    1
     7    35    31    1
     8    46    44    1
     9    22    15    1
    10    32    31   ar
    11    32    33   ar
    12    31    30   ar
    13    45    44   ar
    14    45    41   ar
    15    44    43   ar
    16    20    15   ar
    17    20    19   ar
    18    15    16   ar
    19    33    41    1
    20    33    34   ar
    21    41    42   ar
    22    30    19    1
    23    30    29   ar
    24    19    18   ar
    25    43    49    1
    26    43    42   ar
    27    13    14    3
    28    14     7    1
    29     7     4   ar
    30     7     6   ar
    31    16     4    1
    32    16    17   ar
    33     4     2   ar
    34     6     8    1
    35     6     3   ar
    36     1     2   ar
    37     1     3   ar
    38     1    10    1
    39     2     5    1
    40     3     9    1
    41    10    11    3
    42    11    12    1
    43    42    48    1
    44    34    29   ar
    45    29    36    1
    46    18    17   ar
    47    18    25    1
    48    17    21    1
    49    27    25    1
    50    48    47    3
    51    25    28    1
    52    25    26    1
