@<TRIPOS>MOLECULE
mol_data/noopt/geoms/mol2/4ed6ia(110)6di(150)13al(140).out
 52 55 0 0 0
SMALL
GASTEIGER

@<TRIPOS>ATOM
      1 C           0.0509    0.0309    0.0002 C.ar    1  LIG1        0.0253
      2 C           1.4592    0.0309    0.0002 C.ar    1  LIG1       -0.0373
      3 C          -0.6045    1.2792    0.0002 C.ar    1  LIG1       -0.0451
      4 C           2.1849    1.2200   -0.0004 C.ar    1  LIG1        0.0023
      5 H           1.9850   -0.9213    0.0004 H       1  LIG1        0.0636
      6 C           0.1195    2.4666   -0.0004 C.ar    1  LIG1       -0.0426
      7 C           1.5181    2.4458   -0.0008 C.ar    1  LIG1        0.0596
      8 H          -0.4090    3.4165   -0.0003 H       1  LIG1        0.0631
      9 H          -1.9035    1.3287    0.0016 H       1  LIG1        0.0630
     10 C          -0.5708   -1.1108    0.0005 C.1     1  LIG1       -0.0696
     11 C          -1.1453   -2.1657    0.0008 C.1     1  LIG1       -0.1139
     12 H          -1.6571   -3.1054    0.0010 H       1  LIG1        0.1232
     13 N           2.7818    4.5408   -0.0016 N.1     1  LIG1       -0.1909
     14 C           2.1896    3.5590   -0.0012 C.1     1  LIG1        0.0998
     15 C           4.1833    0.7477   -1.1412 C.ar    1  LIG1        0.0466
     16 C           3.4844    1.1831   -0.0005 C.ar    1  LIG1        0.0044
     17 C           4.2172    1.5717    1.1224 C.ar    1  LIG1       -0.0503
     18 C           5.6108    1.5128    1.0688 C.ar    1  LIG1       -0.0350
     19 C           6.2188    1.0631   -0.1176 C.ar    1  LIG1        0.0740
     20 N           5.5272    0.6846   -1.2103 N.ar    1  LIG1       -0.2512
     21 H           3.7058    1.9166    2.0323 H       1  LIG1        0.0625
     22 C           3.5452    0.3758   -2.2114 C.3     1  LIG1       -0.0217
     23 H           3.4514   -0.6901   -2.2184 H       1  LIG1        0.0293
     24 H           4.0875    0.6918   -3.0780 H       1  LIG1        0.0293
     25 H           2.5716    0.8196   -2.2184 H       1  LIG1        0.0293
     26 H           6.3380    1.8635    2.0878 H       1  LIG1        0.0639
     27 C           8.1163   -0.0962   -0.8751 C.ar    1  LIG1        0.1499
     28 C           7.5130    0.9907   -0.2162 C.ar    1  LIG1        0.0365
     29 C           8.3342    1.9818    0.3245 C.ar    1  LIG1       -0.0448
     30 C           9.7179    1.8550    0.1903 C.ar    1  LIG1       -0.0223
     31 C          10.2268    0.7310   -0.4858 C.ar    1  LIG1        0.0916
     32 N           9.4492   -0.2343   -1.0137 N.ar    1  LIG1       -0.2340
     33 H           7.8990    2.8453    0.8472 H       1  LIG1        0.0628
     34 N           6.7566   -1.8795   -1.8533 N.1     1  LIG1       -0.1893
     35 C           7.3938   -1.0437   -1.3948 C.1     1  LIG1        0.1198
     36 C          10.5252    2.7509    0.6764 C.3     1  LIG1       -0.0376
     37 H           9.9715    3.4415    1.2776 H       1  LIG1        0.0278
     38 H          10.9992    3.2769   -0.1259 H       1  LIG1        0.0278
     39 H          11.2695    2.2717    1.2775 H       1  LIG1        0.0278
     40 C          11.5078    0.5686   -0.6364 C.ar    1  LIG1        0.0688
     41 C          12.5525    1.2612   -0.1103 C.ar    1  LIG1        0.0069
     42 C          13.7554    0.6618   -0.6046 C.ar    1  LIG1        0.1379
     43 C          13.3929   -0.3719   -1.4097 C.ar    1  LIG1        0.0444
     44 N          12.0177   -0.4322   -1.4323 N.ar    1  LIG1       -0.3564
     45 H          11.4786   -1.0938   -1.9420 H       1  LIG1        0.1655
     46 H          14.1212   -1.2118   -2.0836 H       1  LIG1        0.0844
     47 H          12.4707    2.2806    0.6923 H       1  LIG1        0.0676
     48 O          14.9715    1.0342   -0.3351 O.3     1  LIG1       -0.4936
     49 C          15.8126   -0.1181   -0.2363 C.3     1  LIG1        0.0789
     50 H          16.8134    0.1889   -0.0146 H       1  LIG1        0.0660
     51 H          15.4539   -0.7556    0.5447 H       1  LIG1        0.0660
     52 H          15.8000   -0.6496   -1.1648 H       1  LIG1        0.0660
@<TRIPOS>BOND
     1    24    22    1
     2    23    22    1
     3    25    22    1
     4    22    15    1
     5    46    43    1
     6    45    44    1
     7    34    35    3
     8    44    43   ar
     9    44    40   ar
    10    43    42   ar
    11    35    27    1
    12    20    15   ar
    13    20    19   ar
    14    52    49    1
    15    15    16   ar
    16    32    27   ar
    17    32    31   ar
    18    27    28   ar
    19    40    31    1
    20    40    41   ar
    21    42    48    1
    22    42    41   ar
    23    31    30   ar
    24    48    49    1
    25    49    50    1
    26    49    51    1
    27    28    19    1
    28    28    29   ar
    29    38    36    1
    30    19    18   ar
    31    41    47    1
    32    13    14    3
    33    14     7    1
    34     7     6   ar
    35     7     4   ar
    36    16     4    1
    37    16    17   ar
    38     6     8    1
    39     6     3   ar
    40     4     2   ar
    41     2     1   ar
    42     2     5    1
    43     3     1   ar
    44     3     9    1
    45     1    10    1
    46    10    11    3
    47    11    12    1
    48    30    29   ar
    49    30    36    1
    50    29    33    1
    51    36    39    1
    52    36    37    1
    53    18    17   ar
    54    18    26    1
    55    17    21    1
