@<TRIPOS>MOLECULE
mol_data/noopt/geoms/mol2/4ee.out
 16 16 0 0 0
SMALL
GASTEIGER

@<TRIPOS>ATOM
      1 C           0.0509    0.0309    0.0002 C.ar    1  LIG1        0.0248
      2 C           1.4592    0.0309    0.0002 C.ar    1  LIG1       -0.0452
      3 C          -0.6045    1.2792    0.0002 C.ar    1  LIG1       -0.0452
      4 C           2.1849    1.2200   -0.0004 C.ar    1  LIG1       -0.0452
      5 H           1.9850   -0.9213    0.0004 H       1  LIG1        0.0630
      6 C           0.1195    2.4666   -0.0004 C.ar    1  LIG1       -0.0452
      7 C           1.5181    2.4458   -0.0008 C.ar    1  LIG1        0.0248
      8 H          -0.4090    3.4165   -0.0003 H       1  LIG1        0.0630
      9 H           3.4844    1.1831   -0.0005 H       1  LIG1        0.0630
     10 H          -1.9035    1.3287    0.0016 H       1  LIG1        0.0630
     11 C          -0.5708   -1.1108    0.0005 C.1     1  LIG1       -0.0697
     12 C          -1.1453   -2.1657    0.0008 C.1     1  LIG1       -0.1139
     13 H          -1.6571   -3.1054    0.0010 H       1  LIG1        0.1232
     14 C           2.1896    3.5590   -0.0012 C.1     1  LIG1       -0.0697
     15 C           2.8100    4.5875   -0.0016 C.1     1  LIG1       -0.1139
     16 H           3.3627    5.5037   -0.0019 H       1  LIG1        0.1232
@<TRIPOS>BOND
     1    16    15    1
     2    15    14    3
     3    14     7    1
     4     7     4   ar
     5     7     6   ar
     6     9     4    1
     7     4     2   ar
     8     6     8    1
     9     6     3   ar
    10     1     2   ar
    11     1     3   ar
    12     1    11    1
    13     2     5    1
    14     3    10    1
    15    11    12    3
    16    12    13    1
