@<TRIPOS>MOLECULE
mol_data/noopt/geoms/mol2/4ee13ih13ad12fh-.out
 48 51 0 0 0
SMALL
GASTEIGER

@<TRIPOS>ATOM
      1 C           0.0509    0.0309    0.0002 C.ar    1  LIG1        0.0254
      2 C           1.4592    0.0309    0.0002 C.ar    1  LIG1       -0.0360
      3 C          -0.6045    1.2792    0.0002 C.ar    1  LIG1       -0.0451
      4 C           2.1849    1.2200   -0.0004 C.ar    1  LIG1        0.0151
      5 H           1.9850   -0.9213    0.0004 H       1  LIG1        0.0637
      6 C           0.1195    2.4666   -0.0004 C.ar    1  LIG1       -0.0445
      7 C           1.5181    2.4458   -0.0008 C.ar    1  LIG1        0.0339
      8 H          -0.4090    3.4165   -0.0003 H       1  LIG1        0.0630
      9 H          -1.9035    1.3287    0.0016 H       1  LIG1        0.0630
     10 C          -0.5708   -1.1108    0.0005 C.1     1  LIG1       -0.0696
     11 C          -1.1453   -2.1657    0.0008 C.1     1  LIG1       -0.1139
     12 H          -1.6571   -3.1054    0.0010 H       1  LIG1        0.1232
     13 C           2.1896    3.5590   -0.0012 C.1     1  LIG1       -0.0690
     14 C           2.8100    4.5875   -0.0016 C.1     1  LIG1       -0.1139
     15 H           3.3627    5.5037   -0.0019 H       1  LIG1        0.1232
     16 C           3.4844    1.1831   -0.0005 C.ar    1  LIG1        0.0529
     17 C           4.3366    0.1240   -0.0009 C.ar    1  LIG1       -0.0039
     18 C           5.6695    0.6476    0.0003 C.ar    1  LIG1        0.0552
     19 C           5.5731    2.0036   -0.0004 C.ar    1  LIG1        0.0845
     20 N           4.2371    2.3357   -0.0004 N.ar    1  LIG1       -0.3513
     21 H           3.8737    3.2609   -0.0009 H       1  LIG1        0.1660
     22 C           3.9998   -1.1319   -0.0008 C.3     1  LIG1       -0.0359
     23 H           4.7512   -1.7027    0.5036 H       1  LIG1        0.0279
     24 H           3.9074   -1.4765   -1.0096 H       1  LIG1        0.0279
     25 H           3.0635   -1.2500    0.5036 H       1  LIG1        0.0279
     26 N           6.7708   -0.0431    0.0013 N.pl3   1  LIG1       -0.3561
     27 H           6.6197   -0.9121   -0.4698 H       1  LIG1        0.1424
     28 H           7.4873    0.4713   -0.4699 H       1  LIG1        0.1424
     29 C           6.5000    2.9152    0.0001 C.ar    1  LIG1        0.0665
     30 C           7.8541    2.7961    0.0167 C.ar    1  LIG1       -0.0168
     31 C           8.3999    4.1200    0.0095 C.ar    1  LIG1        0.0807
     32 C           7.3554    4.9898   -0.0130 C.ar    1  LIG1        0.1039
     33 N           6.1904    4.2564   -0.0183 N.ar    1  LIG1       -0.3494
     34 H           5.2715    4.6352   -0.0337 H       1  LIG1        0.1661
     35 H           8.5261    1.6835    0.0370 H       1  LIG1        0.0652
     36 N          10.7731    4.7143    0.0323 N.1     1  LIG1       -0.1908
     37 C           9.6609    4.4358    0.0216 C.1     1  LIG1        0.1014
     38 C           7.3403    6.2896   -0.0271 C.ar    1  LIG1        0.1952
     39 C           8.2961    7.2843   -0.0231 C.ar    1  LIG1        0.1853
     40 C           7.5834    8.5446   -0.0476 C.ar    1  LIG1        0.1057
     41 C           6.2387    8.2363   -0.0651 C.ar    1  LIG1        0.1170
     42 O           6.0633    6.8521   -0.0531 O.2     1  LIG1       -0.4557
     43 H           5.1323    8.9183   -0.0895 H       1  LIG1        0.1050
     44 O           9.5886    7.1457   -0.0016 O.3     1  LIG1       -0.5020
     45 H          10.0036    8.0114    0.0037 H       1  LIG1        0.2924
     46 N           8.1299    9.7241   -0.0518 N.pl3   1  LIG1       -0.3527
     47 H           9.0103    9.6819   -0.5243 H       1  LIG1        0.1425
     48 H           7.5286   10.3684   -0.5243 H       1  LIG1        0.1425
@<TRIPOS>BOND
     1    24    22    1
     2    48    46    1
     3    47    46    1
     4    28    26    1
     5    27    26    1
     6    43    41    1
     7    41    42   ar
     8    41    40   ar
     9    42    38   ar
    10    46    40    1
    11    40    39   ar
    12    34    33    1
    13    38    39   ar
    14    38    32    1
    15    39    44    1
    16    33    32   ar
    17    33    29   ar
    18    32    31   ar
    19    15    14    1
    20    14    13    3
    21    44    45    1
    22    13     7    1
    23    17    22    1
    24    17    16   ar
    25    17    18   ar
    26    21    20    1
    27    22    25    1
    28    22    23    1
    29     7     6   ar
    30     7     4   ar
    31    16     4    1
    32    16    20   ar
    33     6     8    1
    34     6     3   ar
    35     4     2   ar
    36    20    19   ar
    37    19    29    1
    38    19    18   ar
    39    29    30   ar
    40     1     2   ar
    41     1     3   ar
    42     1    10    1
    43     2     5    1
    44     3     9    1
    45    18    26    1
    46    10    11    3
    47    11    12    1
    48    31    30   ar
    49    31    37    1
    50    30    35    1
    51    37    36    3
