@<TRIPOS>MOLECULE
mol_data/noopt/geoms/mol2/4ee4ee4ee4ee-.out
 58 59 0 0 0
SMALL
GASTEIGER

@<TRIPOS>ATOM
      1 C           0.0509    0.0309    0.0002 C.ar    1  LIG1        0.0253
      2 C           1.4592    0.0309    0.0002 C.ar    1  LIG1       -0.0374
      3 C          -0.6045    1.2792    0.0002 C.ar    1  LIG1       -0.0451
      4 C           2.1849    1.2200   -0.0004 C.ar    1  LIG1       -0.0001
      5 H           1.9850   -0.9213    0.0004 H       1  LIG1        0.0636
      6 C           0.1195    2.4666   -0.0004 C.ar    1  LIG1       -0.0446
      7 C           1.5181    2.4458   -0.0008 C.ar    1  LIG1        0.0325
      8 H          -0.4090    3.4165   -0.0003 H       1  LIG1        0.0630
      9 H          -1.9035    1.3287    0.0016 H       1  LIG1        0.0630
     10 C          -0.5708   -1.1108    0.0005 C.1     1  LIG1       -0.0696
     11 C          -1.1453   -2.1657    0.0008 C.1     1  LIG1       -0.1139
     12 H          -1.6571   -3.1054    0.0010 H       1  LIG1        0.1232
     13 C           2.1896    3.5590   -0.0012 C.1     1  LIG1       -0.0691
     14 C           2.8100    4.5875   -0.0016 C.1     1  LIG1       -0.1139
     15 H           3.3627    5.5037   -0.0019 H       1  LIG1        0.1232
     16 C           4.1518   -0.0588    0.0002 C.ar    1  LIG1        0.0331
     17 C           5.5600   -0.0451    0.0016 C.ar    1  LIG1       -0.0368
     18 C           3.4843    1.1831   -0.0005 C.ar    1  LIG1       -0.0001
     19 C           6.2742    1.1510    0.0017 C.ar    1  LIG1       -0.0001
     20 H           6.0950   -0.9922    0.0024 H       1  LIG1        0.0636
     21 C           4.1968    2.3775   -0.0004 C.ar    1  LIG1       -0.0368
     22 C           5.5955    2.3702    0.0006 C.ar    1  LIG1        0.0331
     23 H           3.6591    3.3222   -0.0009 H       1  LIG1        0.0636
     24 C           3.5412   -1.2064   -0.0001 C.1     1  LIG1       -0.0690
     25 C           2.9769   -2.2669   -0.0003 C.1     1  LIG1       -0.1139
     26 H           2.4743   -3.2115   -0.0006 H       1  LIG1        0.1232
     27 C           6.2561    3.4899    0.0008 C.1     1  LIG1       -0.0690
     28 C           6.8666    4.5244    0.0010 C.1     1  LIG1       -0.1139
     29 H           7.4103    5.4459    0.0012 H       1  LIG1        0.1232
     30 C           8.2534   -0.1087    0.0043 C.ar    1  LIG1        0.0330
     31 C           9.6614   -0.0814    0.0071 C.ar    1  LIG1       -0.0377
     32 C           7.5739    1.1267    0.0029 C.ar    1  LIG1       -0.0010
     33 C          10.3639    1.1216    0.0079 C.ar    1  LIG1       -0.0126
     34 H          10.2056   -1.0232    0.0084 H       1  LIG1        0.0636
     35 C           8.2747    2.3279    0.0036 C.ar    1  LIG1       -0.0484
     36 C           9.6734    2.3342    0.0060 C.ar    1  LIG1       -0.0301
     37 H           7.7279    3.2674    0.0026 H       1  LIG1        0.0627
     38 C           7.6539   -1.2622    0.0034 C.1     1  LIG1       -0.0690
     39 C           7.1000   -2.3281    0.0026 C.1     1  LIG1       -0.1139
     40 H           6.6066   -3.2775    0.0019 H       1  LIG1        0.1232
     41 C          10.3232    3.4602    0.0069 C.3     1  LIG1        0.0304
     42 C          10.9236    4.5006    0.0077 C.3     2  LIG2       -0.0309
     43 H          11.4584    5.4274    0.0084 H       2  LIG2        0.0309
     44 C          12.3772    2.3260    0.0125 C.ar    1  LIG1       -0.0307
     45 C          13.7839    2.2597    0.0167 C.ar    1  LIG1       -0.0562
     46 C          11.6638    1.1099    0.0104 C.ar    1  LIG1       -0.0126
     47 C          14.4529    1.0378    0.0181 C.ar    1  LIG1       -0.0460
     48 H          14.3540    3.1861    0.0186 H       1  LIG1        0.0621
     49 C          12.3311   -0.1102    0.0118 C.ar    1  LIG1       -0.0383
     50 C          13.7291   -0.1553    0.0156 C.ar    1  LIG1        0.0253
     51 H          11.7585   -1.0342    0.0102 H       1  LIG1        0.0636
     52 H          15.7527    1.0135    0.0219 H       1  LIG1        0.0630
     53 C          11.8099    3.4957    0.0110 C.3     1  LIG1        0.0304
     54 C          11.2857    4.5764    0.0097 C.3     3  LIG3       -0.0309
     55 H          10.8187    5.5392    0.0085 H       1  LIG1        0.0309
     56 C          14.3475   -1.2988    0.0171 C.1     1  LIG1       -0.0696
     57 C          14.9188   -2.3554    0.0185 C.1     1  LIG1       -0.1139
     58 H          15.4278   -3.2966    0.0197 H       1  LIG1        0.1232
@<TRIPOS>BOND
     1    15    14    1
     2    14    13    3
     3    13     7    1
     4    23    21    1
     5     7     4   ar
     6     7     6   ar
     7    26    25    1
     8    18    21   ar
     9    18     4    1
    10    18    16   ar
    11    21    22   ar
    12     4     2   ar
    13     6     8    1
    14     6     3   ar
    15    25    24    3
    16    24    16    1
    17     1     3   ar
    18     1     2   ar
    19     1    10    1
    20     3     9    1
    21     2     5    1
    22    16    17   ar
    23    10    11    3
    24    22    27    1
    25    22    19   ar
    26    11    12    1
    27    27    28    3
    28    28    29    1
    29    17    19   ar
    30    17    20    1
    31    19    32    1
    32    40    39    1
    33    37    35    1
    34    39    38    3
    35    32    35   ar
    36    32    30   ar
    37    38    30    1
    38    35    36   ar
    39    30    31   ar
    40    36    41    1
    41    36    33   ar
    42    31    33   ar
    43    31    34    1
    44    42    55    1
    45    33    46    1
    46    43    54    1
    47    51    49    1
    48    46    49   ar
    49    46    44   ar
    50    53    44    1
    51    49    50   ar
    52    44    45   ar
    53    50    56    1
    54    50    47   ar
    55    45    47   ar
    56    45    48    1
    57    56    57    3
    58    47    52    1
    59    57    58    1
