@<TRIPOS>MOLECULE
mol_data/noopt/geoms/mol2/4ee4ee.out
 30 31 0 0 0
SMALL
GASTEIGER

@<TRIPOS>ATOM
      1 C           0.0509    0.0309    0.0002 C.ar    1  LIG1        0.0253
      2 C           1.4592    0.0309    0.0002 C.ar    1  LIG1       -0.0374
      3 C          -0.6045    1.2792    0.0002 C.ar    1  LIG1       -0.0451
      4 C           2.1849    1.2200   -0.0004 C.ar    1  LIG1       -0.0001
      5 H           1.9850   -0.9213    0.0004 H       1  LIG1        0.0636
      6 C           0.1195    2.4666   -0.0004 C.ar    1  LIG1       -0.0446
      7 C           1.5181    2.4458   -0.0008 C.ar    1  LIG1        0.0325
      8 H          -0.4090    3.4165   -0.0003 H       1  LIG1        0.0630
      9 H          -1.9035    1.3287    0.0016 H       1  LIG1        0.0630
     10 C          -0.5708   -1.1108    0.0005 C.1     1  LIG1       -0.0696
     11 C          -1.1453   -2.1657    0.0008 C.1     1  LIG1       -0.1139
     12 H          -1.6571   -3.1054    0.0010 H       1  LIG1        0.1232
     13 C           2.1896    3.5590   -0.0012 C.1     1  LIG1       -0.0691
     14 C           2.8100    4.5875   -0.0016 C.1     1  LIG1       -0.1139
     15 H           3.3627    5.5037   -0.0019 H       1  LIG1        0.1232
     16 C           4.1518   -0.0588    0.0002 C.ar    1  LIG1        0.0325
     17 C           5.5600   -0.0451    0.0016 C.ar    1  LIG1       -0.0446
     18 C           3.4843    1.1831   -0.0005 C.ar    1  LIG1       -0.0001
     19 C           6.2742    1.1510    0.0017 C.ar    1  LIG1       -0.0451
     20 H           6.0950   -0.9922    0.0024 H       1  LIG1        0.0630
     21 C           4.1968    2.3775   -0.0004 C.ar    1  LIG1       -0.0374
     22 C           5.5955    2.3702    0.0006 C.ar    1  LIG1        0.0253
     23 H           3.6591    3.3222   -0.0009 H       1  LIG1        0.0636
     24 H           7.5740    1.1267    0.0029 H       1  LIG1        0.0630
     25 C           3.5412   -1.2064   -0.0001 C.1     1  LIG1       -0.0691
     26 C           2.9769   -2.2669   -0.0003 C.1     1  LIG1       -0.1139
     27 H           2.4743   -3.2115   -0.0006 H       1  LIG1        0.1232
     28 C           6.2561    3.4899    0.0008 C.1     1  LIG1       -0.0696
     29 C           6.8666    4.5244    0.0010 C.1     1  LIG1       -0.1139
     30 H           7.4103    5.4459    0.0012 H       1  LIG1        0.1232
@<TRIPOS>BOND
     1    15    14    1
     2    14    13    3
     3    13     7    1
     4    23    21    1
     5     7     4   ar
     6     7     6   ar
     7    27    26    1
     8    18    21   ar
     9    18     4    1
    10    18    16   ar
    11    21    22   ar
    12     4     2   ar
    13     6     8    1
    14     6     3   ar
    15    26    25    3
    16    25    16    1
    17     3     1   ar
    18     3     9    1
    19     1     2   ar
    20     1    10    1
    21     2     5    1
    22    16    17   ar
    23    10    11    3
    24    22    28    1
    25    22    19   ar
    26    11    12    1
    27    28    29    3
    28    29    30    1
    29    17    19   ar
    30    17    20    1
    31    19    24    1
