@<TRIPOS>MOLECULE
mol_data/noopt/geoms/mol2/4ee4af6li-12le-.out
 56 57 0 0 0
SMALL
GASTEIGER

@<TRIPOS>ATOM
      1 C           0.0509    0.0309    0.0002 C.ar    1  LIG1        0.0253
      2 C           1.4592    0.0309    0.0002 C.ar    1  LIG1       -0.0374
      3 C          -0.6045    1.2792    0.0002 C.ar    1  LIG1       -0.0451
      4 C           2.1849    1.2200   -0.0004 C.ar    1  LIG1       -0.0012
      5 H           1.9850   -0.9213    0.0004 H       1  LIG1        0.0636
      6 C           0.1195    2.4666   -0.0004 C.ar    1  LIG1       -0.0446
      7 C           1.5181    2.4458   -0.0008 C.ar    1  LIG1        0.0324
      8 H          -0.4090    3.4165   -0.0003 H       1  LIG1        0.0630
      9 H          -1.9035    1.3287    0.0016 H       1  LIG1        0.0630
     10 C          -0.5708   -1.1108    0.0005 C.1     1  LIG1       -0.0696
     11 C          -1.1453   -2.1657    0.0008 C.1     1  LIG1       -0.1139
     12 H          -1.6571   -3.1054    0.0010 H       1  LIG1        0.1232
     13 C           2.1896    3.5590   -0.0012 C.1     1  LIG1       -0.0691
     14 C           2.8100    4.5875   -0.0016 C.1     1  LIG1       -0.1139
     15 H           3.3627    5.5037   -0.0019 H       1  LIG1        0.1232
     16 C           4.1518   -0.0588    0.0002 C.ar    1  LIG1       -0.0532
     17 C           5.5600   -0.0451    0.0016 C.ar    1  LIG1       -0.0498
     18 C           3.4843    1.1831   -0.0005 C.ar    1  LIG1       -0.0132
     19 C           6.2742    1.1510    0.0017 C.ar    1  LIG1        0.0287
     20 H           6.0950   -0.9922    0.0024 H       1  LIG1        0.0625
     21 C           4.1968    2.3775   -0.0004 C.ar    1  LIG1       -0.0118
     22 C           5.5955    2.3702    0.0006 C.ar    1  LIG1        0.1253
     23 H           3.6591    3.3222   -0.0009 H       1  LIG1        0.0660
     24 H           3.5412   -1.2064   -0.0001 H       1  LIG1        0.0624
     25 O           6.2562    3.4899    0.0008 O.3     1  LIG1       -0.5061
     26 H           5.6396    4.2257    0.0009 H       1  LIG1        0.2922
     27 C           8.3076    2.3269   -0.0175 C.ar    1  LIG1        0.2232
     28 C           7.5739    1.1267    0.0029 C.ar    1  LIG1        0.0477
     29 C           8.2728   -0.0817    0.0246 C.ar    1  LIG1       -0.0389
     30 C           9.6684   -0.0509    0.0250 C.ar    1  LIG1        0.0142
     31 C          10.3125    1.1998    0.0035 C.ar    1  LIG1        0.1212
     32 N           9.6539    2.3751   -0.0174 N.ar    1  LIG1       -0.2085
     33 H           7.7338   -1.0396    0.0398 H       1  LIG1        0.0632
     34 O           7.7019    3.4771   -0.0379 O.3     1  LIG1       -0.4792
     35 C           8.6723    4.5274   -0.0455 C.3     1  LIG1        0.0804
     36 H           8.1733    5.4738   -0.0625 H       1  LIG1        0.0660
     37 H           9.2783    4.4595    0.8337 H       1  LIG1        0.0660
     38 H           9.2913    4.4349   -0.9133 H       1  LIG1        0.0660
     39 C          10.3650   -1.1486    0.0445 C.3     1  LIG1       -0.0619
     40 H          11.2897   -0.9753    0.5543 H       1  LIG1        0.2923
     41 H          10.5643   -1.4626   -0.9589 H       2  UNK2        0.0000
     42 H           9.8143   -1.9115    0.5542 H       1  LIG1        0.0233
     43 C          11.6100    1.2803    0.0030 C.ar    1  LIG1        0.1960
     44 C          12.6514    0.3757    0.0175 C.ar    1  LIG1        0.1799
     45 C          13.8744    1.1509    0.0064 C.ar    1  LIG1        0.1045
     46 C          13.4991    2.4784   -0.0142 C.ar    1  LIG1        0.1117
     47 O          12.1078    2.5840   -0.0168 O.2     1  LIG1       -0.4563
     48 H          14.1249    3.6178   -0.0312 H       1  LIG1        0.1043
     49 O          12.5777   -0.9221    0.0374 O.3     1  LIG1       -0.5024
     50 C          11.2049   -1.3222    0.0446 C.3     1  LIG1       -0.0382
     51 H          11.1448   -2.3904    0.0608 H       1  LIG1        0.0303
     52 H          10.7220   -0.9246    0.9128 H       1  LIG1        0.0233
     53 H          10.7205   -0.9511   -0.8343 H       1  LIG1        0.0233
     54 C          15.0799    0.6644    0.0146 C.1     1  LIG1       -0.0628
     55 C          16.1938    0.2148    0.0222 C.1     1  LIG1       -0.1137
     56 H          17.1860   -0.1856    0.0289 H       1  LIG1        0.1232
@<TRIPOS>BOND
     1    38    35    1
     2    53    39    1
     3    36    35    1
     4    35    34    1
     5    35    37    1
     6    34    27    1
     7    48    46    1
     8    27    32   ar
     9    27    28   ar
    10    32    31   ar
    11    47    46   ar
    12    47    43   ar
    13    46    45   ar
    14    15    14    1
    15    14    13    3
    16    13     7    1
    17    23    21    1
    18     7     6   ar
    19     7     4   ar
    20    18    21   ar
    21    18     4    1
    22    18    16   ar
    23    21    22   ar
    24     6     8    1
    25     6     3   ar
    26     4     2   ar
    27    24    16    1
    28     3     1   ar
    29     3     9    1
    30     1     2   ar
    31     1    10    1
    32     2     5    1
    33    16    17   ar
    34    10    11    3
    35    22    25    1
    36    22    19   ar
    37    11    12    1
    38    25    26    1
    39    17    19   ar
    40    17    20    1
    41    19    28    1
    42    28    29   ar
    43    43    31    1
    44    43    44   ar
    45    31    30   ar
    46    45    54    1
    47    45    44   ar
    48    54    55    3
    49    44    49    1
    50    55    56    1
    51    29    30   ar
    52    29    33    1
    53    49    40    1
    54    39    50    1
    55    39    42    1
    56    39    52    1
    57    50    51    1
