@<TRIPOS>MOLECULE
mol_data/noopt/geoms/mol2/4ee4ee4ee-4ee.out
 58 57 0 0 0
SMALL
GASTEIGER

@<TRIPOS>ATOM
      1 C           0.0509    0.0309    0.0002 C.ar    1  LIG1        0.0253
      2 C           1.4592    0.0309    0.0002 C.ar    1  LIG1       -0.0374
      3 C          -0.6045    1.2792    0.0002 C.ar    1  LIG1       -0.0451
      4 C           2.1849    1.2200   -0.0004 C.ar    1  LIG1       -0.0002
      5 H           1.9850   -0.9213    0.0004 H       1  LIG1        0.0636
      6 C           0.1195    2.4666   -0.0004 C.ar    1  LIG1       -0.0446
      7 C           1.5181    2.4458   -0.0008 C.ar    1  LIG1        0.0325
      8 H          -0.4090    3.4165   -0.0003 H       1  LIG1        0.0630
      9 H          -1.9035    1.3287    0.0016 H       1  LIG1        0.0630
     10 C          -0.5708   -1.1108    0.0005 C.1     1  LIG1       -0.0696
     11 C          -1.1453   -2.1657    0.0008 C.1     1  LIG1       -0.1139
     12 H          -1.6571   -3.1054    0.0010 H       1  LIG1        0.1232
     13 C           2.1896    3.5590   -0.0012 C.1     1  LIG1       -0.0691
     14 C           2.8100    4.5875   -0.0016 C.1     1  LIG1       -0.1139
     15 H           3.3627    5.5037   -0.0019 H       1  LIG1        0.1232
     16 C           4.1518   -0.0588    0.0002 C.ar    1  LIG1        0.0330
     17 C           5.5600   -0.0451    0.0016 C.ar    1  LIG1       -0.0377
     18 C           3.4843    1.1831   -0.0005 C.ar    1  LIG1       -0.0010
     19 C           6.2742    1.1510    0.0017 C.ar    1  LIG1       -0.0126
     20 H           6.0950   -0.9922    0.0024 H       1  LIG1        0.0636
     21 C           4.1968    2.3775   -0.0004 C.ar    1  LIG1       -0.0484
     22 C           5.5955    2.3702    0.0006 C.ar    1  LIG1       -0.0301
     23 H           3.6591    3.3222   -0.0009 H       1  LIG1        0.0627
     24 C           3.5412   -1.2064   -0.0001 C.1     1  LIG1       -0.0690
     25 C           2.9769   -2.2669   -0.0003 C.1     1  LIG1       -0.1139
     26 H           2.4743   -3.2115   -0.0006 H       1  LIG1        0.1232
     27 C           6.2561    3.4899    0.0008 C.3     1  LIG1        0.0304
     28 C           6.8666    4.5244    0.0010 C.3     2  LIG2       -0.0309
     29 H           7.4103    5.4459    0.0012 H       2  LIG2        0.0309
     30 C           8.2991    2.3358    0.0043 C.ar    1  LIG1       -0.0302
     31 C           9.7051    2.2559    0.0071 C.ar    1  LIG1       -0.0494
     32 C           7.5739    1.1267    0.0029 C.ar    1  LIG1       -0.0135
     33 C          10.3621    1.0275    0.0079 C.ar    1  LIG1       -0.0135
     34 H          10.2841    3.1767    0.0084 H       1  LIG1        0.0627
     35 C           8.2293   -0.0999    0.0037 C.ar    1  LIG1       -0.0494
     36 C           9.6269   -0.1585    0.0061 C.ar    1  LIG1       -0.0302
     37 H           7.6478   -1.0183    0.0026 H       1  LIG1        0.0627
     38 C           7.7431    3.5109    0.0034 C.3     1  LIG1        0.0304
     39 C           7.2294    4.5967    0.0026 C.3     3  LIG3       -0.0309
     40 H           6.7718    5.5639    0.0019 H       1  LIG1        0.0309
     41 C          10.2341   -1.3080    0.0069 C.3     1  LIG1        0.0304
     42 C          10.7952   -2.3701    0.0077 C.3     4  LIG4       -0.0309
     43 H          11.2950   -3.3162    0.0084 H       4  LIG4        0.0309
     44 C          12.3290   -0.2513    0.0125 C.ar    1  LIG1       -0.0307
     45 C          13.7373   -0.2376    0.0167 C.ar    1  LIG1       -0.0562
     46 C          11.6616    0.9906    0.0104 C.ar    1  LIG1       -0.0126
     47 C          14.4514    0.9585    0.0181 C.ar    1  LIG1       -0.0460
     48 H          14.2723   -1.1847    0.0186 H       1  LIG1        0.0621
     49 C          12.3740    2.1850    0.0118 C.ar    1  LIG1       -0.0383
     50 C          13.7727    2.1777    0.0156 C.ar    1  LIG1        0.0253
     51 H          11.8363    3.1297    0.0102 H       1  LIG1        0.0636
     52 H          15.7512    0.9342    0.0219 H       1  LIG1        0.0630
     53 C          11.7184   -1.3989    0.0110 C.3     1  LIG1        0.0304
     54 C          11.1542   -2.4594    0.0097 C.3     5  LIG5       -0.0309
     55 H          10.6516   -3.4040    0.0085 H       3  LIG3        0.0309
     56 C          14.4334    3.2973    0.0171 C.1     1  LIG1       -0.0696
     57 C          15.0438    4.3319    0.0185 C.1     1  LIG1       -0.1139
     58 H          15.5876    5.2534    0.0197 H       1  LIG1        0.1232
@<TRIPOS>BOND
     1    15    14    1
     2    14    13    3
     3    13     7    1
     4    23    21    1
     5     7     4   ar
     6     7     6   ar
     7    26    25    1
     8    18    21   ar
     9    18     4    1
    10    18    16   ar
    11    21    22   ar
    12     4     2   ar
    13     6     8    1
    14     6     3   ar
    15    25    24    3
    16    24    16    1
    17     1     3   ar
    18     1     2   ar
    19     1    10    1
    20     3     9    1
    21     2     5    1
    22    16    17   ar
    23    10    11    3
    24    22    27    1
    25    22    19   ar
    26    11    12    1
    27    28    40    1
    28    29    39    1
    29    17    19   ar
    30    17    20    1
    31    19    32    1
    32    37    35    1
    33    32    35   ar
    34    32    30   ar
    35    38    30    1
    36    35    36   ar
    37    30    31   ar
    38    36    41    1
    39    36    33   ar
    40    31    33   ar
    41    31    34    1
    42    42    55    1
    43    33    46    1
    44    43    54    1
    45    51    49    1
    46    46    49   ar
    47    46    44   ar
    48    53    44    1
    49    49    50   ar
    50    44    45   ar
    51    50    56    1
    52    50    47   ar
    53    45    47   ar
    54    45    48    1
    55    56    57    3
    56    47    52    1
    57    57    58    1
