@<TRIPOS>MOLECULE
mol_data/noopt/geoms/mol2/4ee4ee-.out
 30 29 0 0 0
SMALL
GASTEIGER

@<TRIPOS>ATOM
      1 C           0.0509    0.0309    0.0002 C.ar    1  LIG1        0.0253
      2 C           1.4592    0.0309    0.0002 C.ar    1  LIG1       -0.0383
      3 C          -0.6045    1.2792    0.0002 C.ar    1  LIG1       -0.0460
      4 C           2.1849    1.2200   -0.0004 C.ar    1  LIG1       -0.0126
      5 H           1.9850   -0.9213    0.0004 H       1  LIG1        0.0636
      6 C           0.1195    2.4666   -0.0004 C.ar    1  LIG1       -0.0562
      7 C           1.5181    2.4458   -0.0008 C.ar    1  LIG1       -0.0307
      8 H          -0.4090    3.4165   -0.0003 H       1  LIG1        0.0621
      9 H          -1.9035    1.3287    0.0016 H       1  LIG1        0.0630
     10 C          -0.5708   -1.1108    0.0005 C.1     1  LIG1       -0.0696
     11 C          -1.1453   -2.1657    0.0008 C.1     1  LIG1       -0.1139
     12 H          -1.6571   -3.1054    0.0010 H       1  LIG1        0.1232
     13 C           2.1896    3.5590   -0.0012 C.3     1  LIG1        0.0304
     14 C           2.8100    4.5875   -0.0016 C.3     2  LIG2       -0.0309
     15 H           3.3627    5.5037   -0.0019 H       2  LIG2        0.0309
     16 C           4.2212    2.3851    0.0002 C.ar    1  LIG1       -0.0307
     17 C           5.6264    2.2916    0.0016 C.ar    1  LIG1       -0.0562
     18 C           3.4843    1.1831   -0.0005 C.ar    1  LIG1       -0.0126
     19 C           6.2715    1.0569    0.0017 C.ar    1  LIG1       -0.0460
     20 H           6.2143    3.2067    0.0024 H       1  LIG1        0.0621
     21 C           4.1278   -0.0498   -0.0004 C.ar    1  LIG1       -0.0383
     22 C           5.5247   -0.1219    0.0006 C.ar    1  LIG1        0.0253
     23 H           3.5374   -0.9625   -0.0009 H       1  LIG1        0.0636
     24 H           7.5706    1.0074    0.0029 H       1  LIG1        0.0630
     25 C           3.6767    3.5656   -0.0001 C.3     1  LIG1        0.0304
     26 C           3.1735    4.6563   -0.0004 C.3     3  LIG3       -0.0309
     27 H           2.7253    5.6279   -0.0006 H       1  LIG1        0.0309
     28 C           6.1208   -1.2772    0.0008 C.1     1  LIG1       -0.0696
     29 C           6.6715   -2.3447    0.0010 C.1     1  LIG1       -0.1139
     30 H           7.1621   -3.2956    0.0012 H       1  LIG1        0.1232
@<TRIPOS>BOND
     1    15    26    1
     2    14    27    1
     3    13     7    1
     4    23    21    1
     5     7     4   ar
     6     7     6   ar
     7    18    21   ar
     8    18     4    1
     9    18    16   ar
    10    21    22   ar
    11     4     2   ar
    12     6     8    1
    13     6     3   ar
    14    25    16    1
    15    16    17   ar
    16     1     3   ar
    17     1     2   ar
    18     1    10    1
    19     3     9    1
    20     2     5    1
    21    10    11    3
    22    22    28    1
    23    22    19   ar
    24    11    12    1
    25    28    29    3
    26    29    30    1
    27    17    19   ar
    28    17    20    1
    29    19    24    1
