@<TRIPOS>MOLECULE
mol_data/noopt/geoms/mol2/4ee4ee-4ee-4ee-.out
 58 59 0 0 0
SMALL
GASTEIGER

@<TRIPOS>ATOM
      1 C           0.0509    0.0309    0.0002 C.ar    1  LIG1        0.0253
      2 C           1.4592    0.0309    0.0002 C.ar    1  LIG1       -0.0383
      3 C          -0.6045    1.2792    0.0002 C.ar    1  LIG1       -0.0460
      4 C           2.1849    1.2200   -0.0004 C.ar    1  LIG1       -0.0126
      5 H           1.9850   -0.9213    0.0004 H       1  LIG1        0.0636
      6 C           0.1195    2.4666   -0.0004 C.ar    1  LIG1       -0.0562
      7 C           1.5181    2.4458   -0.0008 C.ar    1  LIG1       -0.0307
      8 H          -0.4090    3.4165   -0.0003 H       1  LIG1        0.0621
      9 H          -1.9035    1.3287    0.0016 H       1  LIG1        0.0630
     10 C          -0.5708   -1.1108    0.0005 C.1     1  LIG1       -0.0696
     11 C          -1.1453   -2.1657    0.0008 C.1     1  LIG1       -0.1139
     12 H          -1.6571   -3.1054    0.0010 H       1  LIG1        0.1232
     13 C           2.1896    3.5590   -0.0012 C.3     1  LIG1        0.0304
     14 C           2.8100    4.5875   -0.0016 C.3     2  LIG2       -0.0309
     15 H           3.3627    5.5037   -0.0019 H       2  LIG2        0.0309
     16 C           4.2212    2.3851    0.0002 C.ar    1  LIG1       -0.0301
     17 C           5.6264    2.2916    0.0016 C.ar    1  LIG1       -0.0484
     18 C           3.4843    1.1831   -0.0005 C.ar    1  LIG1       -0.0126
     19 C           6.2715    1.0569    0.0017 C.ar    1  LIG1       -0.0010
     20 H           6.2143    3.2067    0.0024 H       1  LIG1        0.0627
     21 C           4.1278   -0.0498   -0.0004 C.ar    1  LIG1       -0.0377
     22 C           5.5247   -0.1219    0.0006 C.ar    1  LIG1        0.0330
     23 H           3.5374   -0.9625   -0.0009 H       1  LIG1        0.0636
     24 C           3.6767    3.5656   -0.0001 C.3     1  LIG1        0.0304
     25 C           3.1735    4.6563   -0.0004 C.3     3  LIG3       -0.0309
     26 H           2.7253    5.6279   -0.0006 H       1  LIG1        0.0309
     27 C           6.1208   -1.2772    0.0008 C.1     1  LIG1       -0.0690
     28 C           6.6715   -2.3447    0.0010 C.1     1  LIG1       -0.1139
     29 H           7.1621   -3.2956    0.0012 H       1  LIG1        0.1232
     30 C           8.3190    2.2022    0.0043 C.ar    1  LIG1        0.0331
     31 C           9.7232    2.0950    0.0071 C.ar    1  LIG1       -0.0368
     32 C           7.5705    1.0074    0.0029 C.ar    1  LIG1       -0.0001
     33 C          10.3563    0.8541    0.0079 C.ar    1  LIG1       -0.0001
     34 H          10.3199    3.0044    0.0084 H       1  LIG1        0.0636
     35 C           8.2020   -0.2317    0.0037 C.ar    1  LIG1       -0.0368
     36 C           9.5982   -0.3174    0.0061 C.ar    1  LIG1        0.0331
     37 H           7.6028   -1.1386    0.0026 H       1  LIG1        0.0636
     38 C           7.7859    3.3879    0.0034 C.1     1  LIG1       -0.0690
     39 C           7.2934    4.4834    0.0026 C.1     1  LIG1       -0.1139
     40 H           6.8546    5.4594    0.0019 H       1  LIG1        0.1232
     41 C          10.1830   -1.4784    0.0069 C.1     1  LIG1       -0.0690
     42 C          10.7233   -2.5512    0.0077 C.1     1  LIG1       -0.1139
     43 H          11.2047   -3.5068    0.0084 H       1  LIG1        0.1232
     44 C          12.4148    1.9795    0.0125 C.ar    1  LIG1        0.0325
     45 C          13.8179    1.8587    0.0167 C.ar    1  LIG1       -0.0446
     46 C          11.6548    0.7920    0.0104 C.ar    1  LIG1       -0.0001
     47 C          14.4389    0.6118    0.0181 C.ar    1  LIG1       -0.0451
     48 H          14.4234    2.7623    0.0186 H       1  LIG1        0.0630
     49 C          12.2742   -0.4531    0.0118 C.ar    1  LIG1       -0.0374
     50 C          13.6695   -0.5523    0.0156 C.ar    1  LIG1        0.0253
     51 H          11.6662   -1.3542    0.0102 H       1  LIG1        0.0636
     52 H          15.7368    0.5371    0.0219 H       1  LIG1        0.0630
     53 C          11.8933    3.1703    0.0110 C.1     1  LIG1       -0.0691
     54 C          11.4114    4.2706    0.0097 C.1     1  LIG1       -0.1139
     55 H          10.9821    5.2507    0.0085 H       1  LIG1        0.1232
     56 C          14.2430   -1.7190    0.0171 C.1     1  LIG1       -0.0696
     57 C          14.7729   -2.7970    0.0185 C.1     1  LIG1       -0.1139
     58 H          15.2450   -3.7572    0.0197 H       1  LIG1        0.1232
@<TRIPOS>BOND
     1    15    25    1
     2    14    26    1
     3    13     7    1
     4    23    21    1
     5     7     4   ar
     6     7     6   ar
     7    18    21   ar
     8    18     4    1
     9    18    16   ar
    10    21    22   ar
    11     4     2   ar
    12     6     8    1
    13     6     3   ar
    14    24    16    1
    15    16    17   ar
    16     1     3   ar
    17     1     2   ar
    18     1    10    1
    19     3     9    1
    20     2     5    1
    21    10    11    3
    22    22    27    1
    23    22    19   ar
    24    11    12    1
    25    27    28    3
    26    28    29    1
    27    17    19   ar
    28    17    20    1
    29    19    32    1
    30    40    39    1
    31    39    38    3
    32    37    35    1
    33    32    35   ar
    34    32    30   ar
    35    38    30    1
    36    35    36   ar
    37    30    31   ar
    38    36    41    1
    39    36    33   ar
    40    41    42    3
    41    31    33   ar
    42    31    34    1
    43    42    43    1
    44    33    46    1
    45    55    54    1
    46    54    53    3
    47    51    49    1
    48    46    49   ar
    49    46    44   ar
    50    53    44    1
    51    49    50   ar
    52    44    45   ar
    53    50    56    1
    54    50    47   ar
    55    45    47   ar
    56    45    48    1
    57    56    57    3
    58    47    52    1
    59    57    58    1
