@<TRIPOS>MOLECULE
mol_data/noopt/geoms/mol2/4ee4ee-4ee4ee.out
 58 57 0 0 0
SMALL
GASTEIGER

@<TRIPOS>ATOM
      1 C           0.0509    0.0309    0.0002 C.ar    1  LIG1        0.0253
      2 C           1.4592    0.0309    0.0002 C.ar    1  LIG1       -0.0383
      3 C          -0.6045    1.2792    0.0002 C.ar    1  LIG1       -0.0460
      4 C           2.1849    1.2200   -0.0004 C.ar    1  LIG1       -0.0126
      5 H           1.9850   -0.9213    0.0004 H       1  LIG1        0.0636
      6 C           0.1195    2.4666   -0.0004 C.ar    1  LIG1       -0.0562
      7 C           1.5181    2.4458   -0.0008 C.ar    1  LIG1       -0.0307
      8 H          -0.4090    3.4165   -0.0003 H       1  LIG1        0.0621
      9 H          -1.9035    1.3287    0.0016 H       1  LIG1        0.0630
     10 C          -0.5708   -1.1108    0.0005 C.1     1  LIG1       -0.0696
     11 C          -1.1453   -2.1657    0.0008 C.1     1  LIG1       -0.1139
     12 H          -1.6571   -3.1054    0.0010 H       1  LIG1        0.1232
     13 C           2.1896    3.5590   -0.0012 C.3     1  LIG1        0.0304
     14 C           2.8100    4.5875   -0.0016 C.3     2  LIG2       -0.0309
     15 H           3.3627    5.5037   -0.0019 H       2  LIG2        0.0309
     16 C           4.2212    2.3851    0.0002 C.ar    1  LIG1       -0.0302
     17 C           5.6264    2.2916    0.0016 C.ar    1  LIG1       -0.0494
     18 C           3.4843    1.1831   -0.0005 C.ar    1  LIG1       -0.0135
     19 C           6.2715    1.0569    0.0017 C.ar    1  LIG1       -0.0135
     20 H           6.2143    3.2067    0.0024 H       1  LIG1        0.0627
     21 C           4.1278   -0.0498   -0.0004 C.ar    1  LIG1       -0.0494
     22 C           5.5247   -0.1219    0.0006 C.ar    1  LIG1       -0.0302
     23 H           3.5374   -0.9625   -0.0009 H       1  LIG1        0.0627
     24 C           3.6767    3.5656   -0.0001 C.3     1  LIG1        0.0304
     25 C           3.1735    4.6563   -0.0004 C.3     3  LIG3       -0.0309
     26 H           2.7253    5.6279   -0.0006 H       1  LIG1        0.0309
     27 C           6.1208   -1.2772    0.0008 C.3     1  LIG1        0.0304
     28 C           6.6715   -2.3447    0.0010 C.3     4  LIG4       -0.0309
     29 H           7.1621   -3.2956    0.0012 H       4  LIG4        0.0309
     30 C           8.2259   -0.2409    0.0043 C.ar    1  LIG1       -0.0301
     31 C           9.6342   -0.2409    0.0071 C.ar    1  LIG1       -0.0484
     32 C           7.5705    1.0074    0.0029 C.ar    1  LIG1       -0.0126
     33 C          10.3599    0.9482    0.0079 C.ar    1  LIG1       -0.0010
     34 H          10.1600   -1.1931    0.0084 H       1  LIG1        0.0627
     35 C           8.2945    2.1948    0.0036 C.ar    1  LIG1       -0.0377
     36 C           9.6931    2.1740    0.0060 C.ar    1  LIG1        0.0330
     37 H           7.7660    3.1447    0.0026 H       1  LIG1        0.0636
     38 C           7.6041   -1.3826    0.0034 C.3     1  LIG1        0.0304
     39 C           7.0297   -2.4375    0.0026 C.3     5  LIG5       -0.0309
     40 H           6.5179   -3.3772    0.0019 H       3  LIG3        0.0309
     41 C          10.3646    3.2871    0.0069 C.1     1  LIG1       -0.0690
     42 C          10.9850    4.3157    0.0077 C.1     1  LIG1       -0.1139
     43 H          11.5377    5.2319    0.0084 H       1  LIG1        0.1232
     44 C          12.3268   -0.3306    0.0125 C.ar    1  LIG1        0.0325
     45 C          13.7350   -0.3169    0.0167 C.ar    1  LIG1       -0.0446
     46 C          11.6593    0.9113    0.0104 C.ar    1  LIG1       -0.0002
     47 C          14.4491    0.8791    0.0181 C.ar    1  LIG1       -0.0451
     48 H          14.2700   -1.2640    0.0186 H       1  LIG1        0.0630
     49 C          12.3718    2.1056    0.0118 C.ar    1  LIG1       -0.0374
     50 C          13.7705    2.0984    0.0156 C.ar    1  LIG1        0.0253
     51 H          11.8341    3.0504    0.0102 H       1  LIG1        0.0636
     52 H          15.7489    0.8548    0.0219 H       1  LIG1        0.0630
     53 C          11.7161   -1.4783    0.0110 C.1     1  LIG1       -0.0691
     54 C          11.1519   -2.5387    0.0097 C.1     1  LIG1       -0.1139
     55 H          10.6493   -3.4833    0.0085 H       1  LIG1        0.1232
     56 C          14.4311    3.2180    0.0171 C.1     1  LIG1       -0.0696
     57 C          15.0416    4.2526    0.0185 C.1     1  LIG1       -0.1139
     58 H          15.5853    5.1741    0.0197 H       1  LIG1        0.1232
@<TRIPOS>BOND
     1    15    25    1
     2    14    26    1
     3    13     7    1
     4    23    21    1
     5     7     4   ar
     6     7     6   ar
     7    18    21   ar
     8    18     4    1
     9    18    16   ar
    10    21    22   ar
    11     4     2   ar
    12     6     8    1
    13     6     3   ar
    14    24    16    1
    15    16    17   ar
    16     1     3   ar
    17     1     2   ar
    18     1    10    1
    19     3     9    1
    20     2     5    1
    21    10    11    3
    22    22    27    1
    23    22    19   ar
    24    11    12    1
    25    28    40    1
    26    29    39    1
    27    17    19   ar
    28    17    20    1
    29    19    32    1
    30    37    35    1
    31    32    35   ar
    32    32    30   ar
    33    38    30    1
    34    35    36   ar
    35    30    31   ar
    36    36    41    1
    37    36    33   ar
    38    41    42    3
    39    31    33   ar
    40    31    34    1
    41    42    43    1
    42    33    46    1
    43    55    54    1
    44    54    53    3
    45    51    49    1
    46    46    49   ar
    47    46    44   ar
    48    53    44    1
    49    49    50   ar
    50    44    45   ar
    51    50    56    1
    52    50    47   ar
    53    45    47   ar
    54    45    48    1
    55    56    57    3
    56    47    52    1
    57    57    58    1
