@<TRIPOS>MOLECULE
mol_data/noopt/geoms/mol2/4ee6dh(140)4ia(20)4dd(310).out
 53 56 0 0 0
SMALL
GASTEIGER

@<TRIPOS>ATOM
      1 C           0.0509    0.0309    0.0002 C.ar    1  LIG1        0.0253
      2 C           1.4592    0.0309    0.0002 C.ar    1  LIG1       -0.0374
      3 C          -0.6045    1.2792    0.0002 C.ar    1  LIG1       -0.0451
      4 C           2.1849    1.2200   -0.0004 C.ar    1  LIG1        0.0014
      5 H           1.9850   -0.9213    0.0004 H       1  LIG1        0.0636
      6 C           0.1195    2.4666   -0.0004 C.ar    1  LIG1       -0.0446
      7 C           1.5181    2.4458   -0.0008 C.ar    1  LIG1        0.0325
      8 H          -0.4090    3.4165   -0.0003 H       1  LIG1        0.0630
      9 H          -1.9035    1.3287    0.0016 H       1  LIG1        0.0630
     10 C          -0.5708   -1.1108    0.0005 C.1     1  LIG1       -0.0696
     11 C          -1.1453   -2.1657    0.0008 C.1     1  LIG1       -0.1139
     12 H          -1.6571   -3.1054    0.0010 H       1  LIG1        0.1232
     13 C           2.1896    3.5590   -0.0012 C.1     1  LIG1       -0.0691
     14 C           2.8100    4.5875   -0.0016 C.1     1  LIG1       -0.1139
     15 H           3.3627    5.5037   -0.0019 H       1  LIG1        0.1232
     16 C           4.1688    0.2331   -0.7806 C.ar    1  LIG1        0.1485
     17 C           3.4844    1.1831   -0.0005 C.ar    1  LIG1        0.0210
     18 C           4.2315    2.0783    0.7672 C.ar    1  LIG1       -0.0285
     19 C           5.6245    1.9952    0.7305 C.ar    1  LIG1        0.0516
     20 C           6.2173    1.0103   -0.0808 C.ar    1  LIG1        0.0933
     21 N           5.5118    0.1388   -0.8279 N.ar    1  LIG1       -0.2339
     22 H           3.7318    2.8338    1.3899 H       1  LIG1        0.0643
     23 N           2.9423   -1.3751   -2.1573 N.1     1  LIG1       -0.1893
     24 C           3.5171   -0.6214   -1.5121 C.1     1  LIG1        0.1197
     25 N           6.3647    2.8056    1.4272 N.pl3   1  LIG1       -0.3563
     26 H           7.3277    2.6492    1.2078 H       1  LIG1        0.1424
     27 H           6.1221    3.7506    1.2078 H       1  LIG1        0.1424
     28 C           8.1271   -0.3155    0.2334 C.ar    1  LIG1       -0.0406
     29 C           9.5305   -0.3912    0.1434 C.ar    1  LIG1       -0.0504
     30 C           7.5102    0.8935   -0.1483 C.ar    1  LIG1        0.0051
     31 C          10.2881    0.6876   -0.3070 C.ar    1  LIG1       -0.0163
     32 H          10.0269   -1.3147    0.4332 H       1  LIG1        0.0626
     33 C           8.2660    1.9707   -0.5981 C.ar    1  LIG1       -0.0517
     34 C           9.6591    1.8758   -0.6808 C.ar    1  LIG1       -0.0534
     35 H           7.7669    2.8923   -0.8866 H       1  LIG1        0.0624
     36 C           7.4743   -1.3556    0.6610 C.3     1  LIG1       -0.0391
     37 H           8.1234   -1.9648    1.2546 H       1  LIG1        0.0278
     38 H           7.1190   -1.9219   -0.1745 H       1  LIG1        0.0278
     39 H           6.6434   -1.0360    1.2546 H       1  LIG1        0.0278
     40 H          10.3604    2.8862   -1.1018 H       1  LIG1        0.0624
     41 C          12.1670   -0.2532   -1.3503 C.ar    1  LIG1        0.0595
     42 C          13.5726   -0.3335   -1.3848 C.ar    1  LIG1       -0.0425
     43 C          11.5819    0.5830   -0.3776 C.ar    1  LIG1        0.0007
     44 C          14.3627    0.3867   -0.4916 C.ar    1  LIG1       -0.0431
     45 H          14.0447   -0.9730   -2.1273 H       1  LIG1        0.0631
     46 C          12.3702    1.3022    0.5143 C.ar    1  LIG1       -0.0354
     47 C          13.7649    1.2095    0.4639 C.ar    1  LIG1        0.0524
     48 H          11.8952    1.9401    1.2553 H       1  LIG1        0.0637
     49 H          15.6576    0.2891   -0.5517 H       1  LIG1        0.0631
     50 N          10.8803   -1.5621   -2.9680 N.1     1  LIG1       -0.1909
     51 C          11.4833   -0.9487   -2.2099 C.1     1  LIG1        0.0998
     52 N          15.1421    2.4789    2.0380 N.1     1  LIG1       -0.1909
     53 C          14.4967    1.8840    1.3003 C.1     1  LIG1        0.0992
@<TRIPOS>BOND
     1    50    51    3
     2    51    41    1
     3    23    24    3
     4    45    42    1
     5    24    16    1
     6    42    41   ar
     7    42    44   ar
     8    41    43   ar
     9    40    34    1
    10    35    33    1
    11    21    16   ar
    12    21    20   ar
    13    16    17   ar
    14    34    33   ar
    15    34    31   ar
    16    33    30   ar
    17    49    44    1
    18    44    47   ar
    19    43    31    1
    20    43    46   ar
    21    31    29   ar
    22    38    36    1
    23    30    20    1
    24    30    28   ar
    25    20    19   ar
    26    15    14    1
    27    14    13    3
    28    13     7    1
    29     7     4   ar
    30     7     6   ar
    31    17     4    1
    32    17    18   ar
    33     4     2   ar
    34     6     8    1
    35     6     3   ar
    36     3     1   ar
    37     3     9    1
    38     2     1   ar
    39     2     5    1
    40     1    10    1
    41    10    11    3
    42    11    12    1
    43    29    28   ar
    44    29    32    1
    45    28    36    1
    46    47    46   ar
    47    47    53    1
    48    46    48    1
    49    36    39    1
    50    36    37    1
    51    19    18   ar
    52    19    25    1
    53    18    22    1
    54    27    25    1
    55    26    25    1
    56    53    52    3
