@<TRIPOS>MOLECULE
mol_data/noopt/geoms/mol2/4ef.out
 15 15 0 0 0
SMALL
GASTEIGER

@<TRIPOS>ATOM
      1 C           0.0509    0.0309    0.0002 C.ar    1  LIG1        0.0249
      2 C           1.4592    0.0309    0.0002 C.ar    1  LIG1       -0.0429
      3 C          -0.6045    1.2792    0.0002 C.ar    1  LIG1       -0.0429
      4 C           2.1849    1.2200   -0.0004 C.ar    1  LIG1       -0.0190
      5 H           1.9850   -0.9213    0.0004 H       1  LIG1        0.0631
      6 C           0.1195    2.4666   -0.0004 C.ar    1  LIG1       -0.0190
      7 C           1.5181    2.4458   -0.0008 C.ar    1  LIG1        0.1169
      8 H          -0.4090    3.4165   -0.0003 H       1  LIG1        0.0654
      9 H           3.4844    1.1831   -0.0005 H       1  LIG1        0.0654
     10 H          -1.9035    1.3287    0.0016 H       1  LIG1        0.0631
     11 C          -0.5708   -1.1108    0.0005 C.1     1  LIG1       -0.0697
     12 C          -1.1453   -2.1657    0.0008 C.1     1  LIG1       -0.1139
     13 H          -1.6571   -3.1054    0.0010 H       1  LIG1        0.1232
     14 O           2.1896    3.5590   -0.0012 O.3     1  LIG1       -0.5068
     15 H           1.5802    4.3008   -0.0013 H       1  LIG1        0.2921
@<TRIPOS>BOND
     1    15    14    1
     2    14     7    1
     3     7     4   ar
     4     7     6   ar
     5     9     4    1
     6     4     2   ar
     7     6     8    1
     8     6     3   ar
     9     1     2   ar
    10     1     3   ar
    11     1    11    1
    12     2     5    1
    13     3    10    1
    14    11    12    3
    15    12    13    1
