@<TRIPOS>MOLECULE
mol_data/noopt/geoms/mol2/4ef13li4la-12ih.out
 56 54 0 0 0
SMALL
GASTEIGER

@<TRIPOS>ATOM
      1 C           0.0509    0.0309    0.0002 C.2     1  LIG1        0.0401
      2 C           1.4592    0.0309    0.0002 C.3     2  LIG2        0.0000
      3 C          -0.6045    1.2792    0.0002 C.2     1  LIG1       -0.0417
      4 C           2.1849    1.2200   -0.0004 C.2     1  LIG1        0.0511
      5 H           1.9850   -0.9213    0.0004 H       2  LIG2        0.0194
      6 C           0.1195    2.4666   -0.0004 C.2     1  LIG1       -0.0183
      7 C           1.5181    2.4458   -0.0008 C.2     1  LIG1        0.1265
      8 H          -0.4090    3.4165   -0.0003 H       1  LIG1        0.0655
      9 H          -1.9035    1.3287    0.0016 H       1  LIG1        0.0631
     10 C          -0.5708   -1.1108    0.0005 C.1     1  LIG1       -0.0684
     11 C          -1.1453   -2.1657    0.0008 C.1     1  LIG1       -0.1139
     12 H          -1.6571   -3.1054    0.0010 H       1  LIG1        0.1232
     13 O           2.1896    3.5590   -0.0012 O.2     1  LIG1       -0.5061
     14 H           1.5802    4.3008   -0.0013 H       1  LIG1        0.2922
     15 CA          3.4844    1.1831   -0.0005 C.2     1  LIG1        0.0699
     16 C           4.3366    0.1240   -0.0009 C.3     1  LIG1        0.2253
     17 C           5.6695    0.6476    0.0003 C.3     1  LIG1        0.0498
     18 C           5.5731    2.0036   -0.0004 C.2     1  LIG1        0.0360
     19 N           4.2371    2.3357   -0.0004 N.2     1  LIG1       -0.3575
     20 H           3.8737    3.2609   -0.0009 H       1  LIG1        0.1654
     21 O           3.9998   -1.1317   -0.0008 O.3     1  LIG1       -0.2135
     22 C           2.5742   -1.2434   -0.0009 C.3     3  LIG3       -0.0776
     23 H           2.2975   -2.2770   -0.0009 H       2  LIG2        0.0194
     24 H           2.1792   -0.7685    0.8729 H       2  LIG2        0.0194
     25 H           2.1792   -0.7684   -0.8744 H       2  LIG2        0.0194
     26 C           6.7711   -0.0432    0.0013 C.3     4  LIG4       -0.0776
     27 H           7.5371    0.5076    0.5060 H       3  LIG3        0.0194
     28 H           7.0740   -0.2331   -1.0072 H       3  LIG3        0.0194
     29 H           6.6087   -0.9727    0.5060 H       3  LIG3        0.0194
     30 C           7.8578    2.5362    0.0225 C.ar    1  LIG1        0.1301
     31 C           8.8235    3.5612    0.0236 C.ar    1  LIG1       -0.0086
     32 C           6.4999    2.9151    0.0001 C.ar    1  LIG1        0.0365
     33 C           8.4559    4.9047    0.0027 C.ar    1  LIG1        0.0211
     34 H           9.8770    3.2910    0.0408 H       1  LIG1        0.0661
     35 C           6.1324    4.2562   -0.0207 C.ar    1  LIG1       -0.0488
     36 C           7.1066    5.2599   -0.0196 C.ar    1  LIG1       -0.0502
     37 H           5.0787    4.5229   -0.0376 H       1  LIG1        0.0625
     38 O           8.2622    1.3009    0.0422 O.3     1  LIG1       -0.4879
     39 C           7.1296    0.4279    0.0494 C.3     1  LIG1        0.1235
     40 H           7.4630   -0.5887    0.0656 H       3  LIG3        0.0194
     41 H           6.5351    0.6221    0.9177 H       1  LIG1        0.0731
     42 H           6.5433    0.5971   -0.8294 H       1  LIG1        0.0731
     43 H           6.7570    6.5119   -0.0390 H       1  LIG1        0.0625
     44 C           9.3739    5.8252    0.0043 C.ar    1  LIG1        0.1396
     45 C          10.7532    5.8384    0.0202 C.ar    1  LIG1        0.0159
     46 C          11.1548    7.2297    0.0111 C.ar    1  LIG1        0.0664
     47 C           9.9937    7.9746   -0.0100 C.ar    1  LIG1        0.1134
     48 O           8.8822    7.1312   -0.0147 O.2     1  LIG1       -0.4608
     49 H           9.7068    9.2425   -0.0259 H       1  LIG1        0.1049
     50 C          11.5587    4.8178    0.0399 C.3     1  LIG1       -0.0344
     51 H          12.4607    5.0851    0.5497 H       1  LIG1        0.0279
     52 H          11.7892    4.5260   -0.9634 H       1  LIG1        0.0279
     53 H          11.0891    4.0026    0.5496 H       1  LIG1        0.0279
     54 N          12.3799    7.6647    0.0211 N.pl3   1  LIG1       -0.3553
     55 H          12.9706    7.0080   -0.4478 H       1  LIG1        0.1424
     56 H          12.4241    8.5468   -0.4478 H       1  LIG1        0.1424
@<TRIPOS>BOND
     1    28    26    1
     2    52    50    1
     3    25    22    1
     4    42    39    1
     5    56    54    1
     6    55    54    1
     7    43    36    1
     8    37    35    1
     9    49    47    1
    10    35    36   ar
    11    35    32   ar
    12    36    33   ar
    13    48    47   ar
    14    48    44   ar
    15    47    46   ar
    16    14    13    1
    17    13     7    1
    18    23    22    1
    19    16    21    1
    20    16    15    1
    21    20    19    1
    22    22     5    1
    23    22    24    1
    24     7     6    2
    25     7     4    1
    26    15     4    2
    27    15    19    1
    28     6     8    1
    29     6     3    1
    30    19    18    2
    31    18    32    1
    32    18    17    1
    33    32    30   ar
    34     1     3    2
    35     1    10    1
    36     3     9    1
    37    10    11    3
    38    11    12    1
    39    26    40    1
    40    26    29    1
    41    26    27    1
    42    33    44    1
    43    33    31   ar
    44    44    45   ar
    45    46    45   ar
    46    46    54    1
    47    45    50    1
    48    30    31   ar
    49    30    38    1
    50    31    34    1
    51    50    53    1
    52    50    51    1
    53    38    39    1
    54    39    41    1
