@<TRIPOS>MOLECULE
mol_data/noopt/geoms/mol2/4ef4ed(270)6hd(250)13ad(170).out
 49 52 0 0 0
SMALL
GASTEIGER

@<TRIPOS>ATOM
      1 C           0.0509    0.0309    0.0002 C.ar    1  LIG1        0.0255
      2 C           1.4592    0.0309    0.0002 C.ar    1  LIG1       -0.0351
      3 C          -0.6045    1.2792    0.0002 C.ar    1  LIG1       -0.0429
      4 C           2.1849    1.2200   -0.0004 C.ar    1  LIG1        0.0259
      5 H           1.9850   -0.9213    0.0004 H       1  LIG1        0.0637
      6 C           0.1195    2.4666   -0.0004 C.ar    1  LIG1       -0.0184
      7 C           1.5181    2.4458   -0.0008 C.ar    1  LIG1        0.1246
      8 H          -0.4090    3.4165   -0.0003 H       1  LIG1        0.0654
      9 H          -1.9035    1.3287    0.0016 H       1  LIG1        0.0631
     10 C          -0.5708   -1.1108    0.0005 C.1     1  LIG1       -0.0696
     11 C          -1.1453   -2.1657    0.0008 C.1     1  LIG1       -0.1139
     12 H          -1.6571   -3.1054    0.0010 H       1  LIG1        0.1232
     13 O           2.1896    3.5590   -0.0012 O.3     1  LIG1       -0.5062
     14 H           1.5802    4.3008   -0.0013 H       1  LIG1        0.2922
     15 C           4.1864    1.1624   -1.2230 C.ar    1  LIG1        0.0331
     16 C           5.5931    1.1210   -1.1695 C.ar    1  LIG1       -0.0373
     17 C           3.4843    1.1831   -0.0005 C.ar    1  LIG1        0.0017
     18 C           6.2728    1.1015    0.0463 C.ar    1  LIG1       -0.0047
     19 H           6.1544    1.1042   -2.1010 H       1  LIG1        0.0636
     20 C           4.1624    1.1637    1.2136 C.ar    1  LIG1       -0.0435
     21 C           5.5602    1.1229    1.2459 C.ar    1  LIG1        0.0033
     22 H           3.5984    1.1802    2.1427 H       1  LIG1        0.0631
     23 C           3.6087    1.1792   -2.3875 C.1     1  LIG1       -0.0690
     24 C           3.0749    1.1946   -3.4635 C.1     1  LIG1       -0.1139
     25 H           2.5995    1.2084   -4.4219 H       1  LIG1        0.1232
     26 N           6.7429    1.0888    3.3874 N.2     1  LIG1       -0.1571
     27 C           6.1886    1.1048    2.3838 C.2     1  LIG1        0.0576
     28 C           8.2597    0.6272    1.2062 C.ar    1  LIG1        0.1434
     29 C           7.5721    1.0633    0.0589 C.ar    1  LIG1        0.0252
     30 C           8.3160    1.4506   -1.0573 C.ar    1  LIG1       -0.0311
     31 C           9.7090    1.3901   -0.9904 C.ar    1  LIG1        0.0798
     32 C          10.3051    0.9402    0.2019 C.ar    1  LIG1        0.1066
     33 N           9.6029    0.5625    1.2880 N.ar    1  LIG1       -0.2274
     34 H           7.8138    1.7979   -1.9713 H       1  LIG1        0.0638
     35 N           7.6112    0.2564    2.2701 N.pl3   1  LIG1       -0.2488
     36 H           6.7047    0.6786    2.2719 H       1  LIG1        0.0854
     37 H           7.5153   -0.7390    2.2719 H       1  LIG1        0.1715
     38 N          11.0964    2.0483   -2.8950 N.1     1  LIG1       -0.1908
     39 C          10.4462    1.7398   -2.0024 C.1     1  LIG1        0.1014
     40 C          11.5983    0.8661    0.3127 C.ar    1  LIG1        0.0675
     41 C          12.5199    1.8360    0.5534 C.ar    1  LIG1       -0.0175
     42 C          13.8065    1.2077    0.5748 C.ar    1  LIG1        0.0696
     43 C          13.6144   -0.1188    0.3480 C.ar    1  LIG1        0.0197
     44 N          12.2640   -0.3322    0.1865 N.ar    1  LIG1       -0.3582
     45 H          11.8373   -1.2120    0.0078 H       1  LIG1        0.1654
     46 H          14.4702   -1.0946    0.2745 H       1  LIG1        0.0820
     47 H          12.2746    3.1005    0.7296 H       1  LIG1        0.0652
     48 N          15.9575    2.3113    0.9505 N.1     1  LIG1       -0.1908
     49 C          14.9494    1.7941    0.7744 C.1     1  LIG1        0.1007
@<TRIPOS>BOND
     1    25    24    1
     2    24    23    3
     3    38    39    3
     4    23    15    1
     5    19    16    1
     6    39    31    1
     7    34    30    1
     8    15    16   ar
     9    15    17   ar
    10    16    18   ar
    11    30    31   ar
    12    30    29   ar
    13    31    32   ar
    14    14    13    1
    15    13     7    1
    16     7     6   ar
    17     7     4   ar
    18    17     4    1
    19    17    20   ar
    20     6     8    1
    21     6     3   ar
    22     4     2   ar
    23     1     2   ar
    24     1     3   ar
    25     1    10    1
    26     2     5    1
    27     3     9    1
    28    10    11    3
    29    11    12    1
    30    45    44    1
    31    18    29    1
    32    18    21   ar
    33    29    28   ar
    34    44    40   ar
    35    44    43   ar
    36    32    40    1
    37    32    33   ar
    38    46    43    1
    39    40    41   ar
    40    43    42   ar
    41    41    42   ar
    42    41    47    1
    43    42    49    1
    44    49    48    3
    45    28    33   ar
    46    28    35    1
    47    20    21   ar
    48    20    22    1
    49    21    27    1
    50    35    37    1
    51    36    27    1
    52    27    26    2
