@<TRIPOS>MOLECULE
mol_data/noopt/geoms/mol2/4ef4ef-.out
 28 29 0 0 0
SMALL
GASTEIGER

@<TRIPOS>ATOM
      1 C           0.0509    0.0309    0.0002 C.ar    1  LIG1        0.0255
      2 C           1.4592    0.0309    0.0002 C.ar    1  LIG1       -0.0351
      3 C          -0.6045    1.2792    0.0002 C.ar    1  LIG1       -0.0429
      4 C           2.1849    1.2200   -0.0004 C.ar    1  LIG1        0.0260
      5 H           1.9850   -0.9213    0.0004 H       1  LIG1        0.0637
      6 C           0.1195    2.4666   -0.0004 C.ar    1  LIG1       -0.0184
      7 C           1.5181    2.4458   -0.0008 C.ar    1  LIG1        0.1246
      8 H          -0.4090    3.4165   -0.0003 H       1  LIG1        0.0654
      9 H          -1.9035    1.3287    0.0016 H       1  LIG1        0.0631
     10 C          -0.5708   -1.1108    0.0005 C.1     1  LIG1       -0.0696
     11 C          -1.1453   -2.1657    0.0008 C.1     1  LIG1       -0.1139
     12 H          -1.6571   -3.1054    0.0010 H       1  LIG1        0.1232
     13 O           2.1896    3.5590   -0.0012 O.3     1  LIG1       -0.5062
     14 H           1.5802    4.3008   -0.0013 H       1  LIG1        0.2922
     15 C           4.2212    2.3851    0.0002 C.ar    1  LIG1        0.0327
     16 C           5.6264    2.2916    0.0016 C.ar    1  LIG1       -0.0423
     17 C           3.4843    1.1831   -0.0005 C.ar    1  LIG1        0.0045
     18 C           6.2715    1.0569    0.0017 C.ar    1  LIG1       -0.0190
     19 H           6.2143    3.2067    0.0024 H       1  LIG1        0.0631
     20 C           4.1278   -0.0498   -0.0004 C.ar    1  LIG1       -0.0112
     21 C           5.5247   -0.1219    0.0006 C.ar    1  LIG1        0.1175
     22 H           3.5374   -0.9625   -0.0009 H       1  LIG1        0.0660
     23 H           7.5706    1.0074    0.0029 H       1  LIG1        0.0654
     24 C           3.6767    3.5656   -0.0001 C.1     1  LIG1       -0.0690
     25 C           3.1735    4.6563   -0.0004 C.1     1  LIG1       -0.1139
     26 H           2.7253    5.6279   -0.0006 H       1  LIG1        0.1232
     27 O           6.1208   -1.2773    0.0008 O.3     1  LIG1       -0.5067
     28 H           7.0719   -1.1471    0.0009 H       1  LIG1        0.2921
@<TRIPOS>BOND
     1    14    13    1
     2    13     7    1
     3    22    20    1
     4     7     4   ar
     5     7     6   ar
     6    26    25    1
     7    17    20   ar
     8    17     4    1
     9    17    15   ar
    10    20    21   ar
    11     4     2   ar
    12     6     8    1
    13     6     3   ar
    14    25    24    3
    15    24    15    1
    16    15    16   ar
    17     1     3   ar
    18     1     2   ar
    19     1    10    1
    20     3     9    1
    21     2     5    1
    22    10    11    3
    23    21    27    1
    24    21    18   ar
    25    11    12    1
    26    27    28    1
    27    16    18   ar
    28    16    19    1
    29    18    23    1
