@<TRIPOS>MOLECULE
mol_data/noopt/geoms/mol2/4ef4ef-4ef.out
 41 43 0 0 0
SMALL
GASTEIGER

@<TRIPOS>ATOM
      1 C           0.0509    0.0309    0.0002 C.ar    1  LIG1        0.0255
      2 C           1.4592    0.0309    0.0002 C.ar    1  LIG1       -0.0351
      3 C          -0.6045    1.2792    0.0002 C.ar    1  LIG1       -0.0429
      4 C           2.1849    1.2200   -0.0004 C.ar    1  LIG1        0.0260
      5 H           1.9850   -0.9213    0.0004 H       1  LIG1        0.0637
      6 C           0.1195    2.4666   -0.0004 C.ar    1  LIG1       -0.0184
      7 C           1.5181    2.4458   -0.0008 C.ar    1  LIG1        0.1246
      8 H          -0.4090    3.4165   -0.0003 H       1  LIG1        0.0654
      9 H          -1.9035    1.3287    0.0016 H       1  LIG1        0.0631
     10 C          -0.5708   -1.1108    0.0005 C.1     1  LIG1       -0.0696
     11 C          -1.1453   -2.1657    0.0008 C.1     1  LIG1       -0.1139
     12 H          -1.6571   -3.1054    0.0010 H       1  LIG1        0.1232
     13 O           2.1896    3.5590   -0.0012 O.3     1  LIG1       -0.5062
     14 H           1.5802    4.3008   -0.0013 H       1  LIG1        0.2922
     15 C           4.2212    2.3851    0.0002 C.ar    1  LIG1        0.0333
     16 C           5.6264    2.2916    0.0016 C.ar    1  LIG1       -0.0345
     17 C           3.4843    1.1831   -0.0005 C.ar    1  LIG1        0.0045
     18 C           6.2715    1.0569    0.0017 C.ar    1  LIG1        0.0260
     19 H           6.2143    3.2067    0.0024 H       1  LIG1        0.0637
     20 C           4.1278   -0.0498   -0.0004 C.ar    1  LIG1       -0.0106
     21 C           5.5247   -0.1219    0.0006 C.ar    1  LIG1        0.1252
     22 H           3.5374   -0.9625   -0.0009 H       1  LIG1        0.0661
     23 C           3.6767    3.5656   -0.0001 C.1     1  LIG1       -0.0690
     24 C           3.1735    4.6563   -0.0004 C.1     1  LIG1       -0.1139
     25 H           2.7253    5.6279   -0.0006 H       1  LIG1        0.1232
     26 O           6.1208   -1.2773    0.0008 O.3     1  LIG1       -0.5061
     27 H           7.0719   -1.1471    0.0009 H       1  LIG1        0.2922
     28 C           8.2259   -0.2409    0.0043 C.ar    1  LIG1        0.0327
     29 C           9.6342   -0.2409    0.0071 C.ar    1  LIG1       -0.0423
     30 C           7.5705    1.0074    0.0029 C.ar    1  LIG1        0.0045
     31 C          10.3599    0.9482    0.0079 C.ar    1  LIG1       -0.0190
     32 H          10.1600   -1.1931    0.0084 H       1  LIG1        0.0631
     33 C           8.2945    2.1948    0.0036 C.ar    1  LIG1       -0.0112
     34 C           9.6931    2.1740    0.0060 C.ar    1  LIG1        0.1175
     35 H           7.7660    3.1447    0.0026 H       1  LIG1        0.0660
     36 H          11.6594    0.9113    0.0104 H       1  LIG1        0.0654
     37 C           7.6041   -1.3826    0.0034 C.1     1  LIG1       -0.0690
     38 C           7.0297   -2.4375    0.0026 C.1     1  LIG1       -0.1139
     39 H           6.5179   -3.3772    0.0019 H       1  LIG1        0.1232
     40 O          10.3646    3.2872    0.0069 O.3     1  LIG1       -0.5067
     41 H           9.7552    4.0290    0.0071 H       1  LIG1        0.2921
@<TRIPOS>BOND
     1    14    13    1
     2    13     7    1
     3    22    20    1
     4     7     4   ar
     5     7     6   ar
     6    25    24    1
     7    17    20   ar
     8    17     4    1
     9    17    15   ar
    10    20    21   ar
    11     4     2   ar
    12     6     8    1
    13     6     3   ar
    14    24    23    3
    15    23    15    1
    16    15    16   ar
    17     1     3   ar
    18     1     2   ar
    19     1    10    1
    20     3     9    1
    21     2     5    1
    22    10    11    3
    23    21    26    1
    24    21    18   ar
    25    11    12    1
    26    26    27    1
    27    16    18   ar
    28    16    19    1
    29    18    30    1
    30    39    38    1
    31    35    33    1
    32    38    37    3
    33    30    33   ar
    34    30    28   ar
    35    37    28    1
    36    33    34   ar
    37    28    29   ar
    38    34    40    1
    39    34    31   ar
    40    40    41    1
    41    29    31   ar
    42    29    32    1
    43    31    36    1
