@<TRIPOS>MOLECULE
mol_data/noopt/geoms/mol2/4ef4ef4ef-4ef.out
 54 57 0 0 0
SMALL
GASTEIGER

@<TRIPOS>ATOM
      1 C           0.0509    0.0309    0.0002 C.ar    1  LIG1        0.0255
      2 C           1.4592    0.0309    0.0002 C.ar    1  LIG1       -0.0351
      3 C          -0.6045    1.2792    0.0002 C.ar    1  LIG1       -0.0429
      4 C           2.1849    1.2200   -0.0004 C.ar    1  LIG1        0.0260
      5 H           1.9850   -0.9213    0.0004 H       1  LIG1        0.0637
      6 C           0.1195    2.4666   -0.0004 C.ar    1  LIG1       -0.0184
      7 C           1.5181    2.4458   -0.0008 C.ar    1  LIG1        0.1246
      8 H          -0.4090    3.4165   -0.0003 H       1  LIG1        0.0654
      9 H          -1.9035    1.3287    0.0016 H       1  LIG1        0.0631
     10 C          -0.5708   -1.1108    0.0005 C.1     1  LIG1       -0.0696
     11 C          -1.1453   -2.1657    0.0008 C.1     1  LIG1       -0.1139
     12 H          -1.6571   -3.1054    0.0010 H       1  LIG1        0.1232
     13 O           2.1896    3.5590   -0.0012 O.3     1  LIG1       -0.5062
     14 H           1.5802    4.3008   -0.0013 H       1  LIG1        0.2922
     15 C           4.1518   -0.0588    0.0002 C.ar    1  LIG1        0.0333
     16 C           5.5600   -0.0451    0.0016 C.ar    1  LIG1       -0.0345
     17 C           3.4843    1.1831   -0.0005 C.ar    1  LIG1        0.0045
     18 C           6.2742    1.1510    0.0017 C.ar    1  LIG1        0.0260
     19 H           6.0950   -0.9922    0.0024 H       1  LIG1        0.0637
     20 C           4.1968    2.3775   -0.0004 C.ar    1  LIG1       -0.0106
     21 C           5.5955    2.3702    0.0006 C.ar    1  LIG1        0.1252
     22 H           3.6591    3.3222   -0.0009 H       1  LIG1        0.0661
     23 C           3.5412   -1.2064   -0.0001 C.1     1  LIG1       -0.0690
     24 C           2.9769   -2.2669   -0.0003 C.1     1  LIG1       -0.1139
     25 H           2.4743   -3.2115   -0.0006 H       1  LIG1        0.1232
     26 O           6.2562    3.4899    0.0008 O.3     1  LIG1       -0.5061
     27 H           5.6396    4.2257    0.0009 H       1  LIG1        0.2922
     28 C           8.2991    2.3358    0.0043 C.ar    1  LIG1        0.0333
     29 C           9.7051    2.2559    0.0071 C.ar    1  LIG1       -0.0345
     30 C           7.5739    1.1267    0.0029 C.ar    1  LIG1        0.0045
     31 C          10.3621    1.0275    0.0079 C.ar    1  LIG1        0.0260
     32 H          10.2841    3.1767    0.0084 H       1  LIG1        0.0637
     33 C           8.2293   -0.0999    0.0037 C.ar    1  LIG1       -0.0106
     34 C           9.6269   -0.1585    0.0061 C.ar    1  LIG1        0.1252
     35 H           7.6478   -1.0183    0.0026 H       1  LIG1        0.0661
     36 C           7.7431    3.5109    0.0034 C.1     1  LIG1       -0.0690
     37 C           7.2294    4.5967    0.0026 C.1     1  LIG1       -0.1139
     38 H           6.7718    5.5639    0.0019 H       1  LIG1        0.1232
     39 O          10.2341   -1.3080    0.0069 O.3     1  LIG1       -0.5061
     40 H          11.1839   -1.1686    0.0071 H       1  LIG1        0.2922
     41 C          12.3290   -0.2513    0.0125 C.ar    1  LIG1        0.0327
     42 C          13.7373   -0.2376    0.0167 C.ar    1  LIG1       -0.0423
     43 C          11.6616    0.9906    0.0104 C.ar    1  LIG1        0.0045
     44 C          14.4514    0.9585    0.0181 C.ar    1  LIG1       -0.0190
     45 H          14.2723   -1.1847    0.0186 H       1  LIG1        0.0631
     46 C          12.3740    2.1850    0.0118 C.ar    1  LIG1       -0.0112
     47 C          13.7727    2.1777    0.0156 C.ar    1  LIG1        0.1175
     48 H          11.8363    3.1297    0.0102 H       1  LIG1        0.0660
     49 H          15.7512    0.9342    0.0219 H       1  LIG1        0.0654
     50 C          11.7184   -1.3989    0.0110 C.1     1  LIG1       -0.0690
     51 C          11.1542   -2.4594    0.0097 C.1     1  LIG1       -0.1139
     52 H          10.6516   -3.4040    0.0085 H       1  LIG1        0.1232
     53 O          14.4334    3.2974    0.0171 O.3     1  LIG1       -0.5067
     54 H          13.8168    4.0332    0.0175 H       1  LIG1        0.2921
@<TRIPOS>BOND
     1    14    13    1
     2    13     7    1
     3    22    20    1
     4     7     6   ar
     5     7     4   ar
     6    25    24    1
     7    17    20   ar
     8    17     4    1
     9    17    15   ar
    10    20    21   ar
    11     6     8    1
    12     6     3   ar
    13     4     2   ar
    14    24    23    3
    15    23    15    1
    16     2     1   ar
    17     2     5    1
    18     1     3   ar
    19     1    10    1
    20     3     9    1
    21    15    16   ar
    22    10    11    3
    23    21    26    1
    24    21    18   ar
    25    11    12    1
    26    26    27    1
    27    16    18   ar
    28    16    19    1
    29    18    30    1
    30    38    37    1
    31    37    36    3
    32    35    33    1
    33    30    33   ar
    34    30    28   ar
    35    36    28    1
    36    33    34   ar
    37    28    29   ar
    38    34    39    1
    39    34    31   ar
    40    39    40    1
    41    29    31   ar
    42    29    32    1
    43    31    43    1
    44    52    51    1
    45    51    50    3
    46    48    46    1
    47    43    46   ar
    48    43    41   ar
    49    50    41    1
    50    46    47   ar
    51    41    42   ar
    52    47    53    1
    53    47    44   ar
    54    42    44   ar
    55    42    45    1
    56    53    54    1
    57    44    49    1
