@<TRIPOS>MOLECULE
mol_data/noopt/geoms/mol2/4eg4eg-4eg-.out
 41 43 0 0 0
SMALL
GASTEIGER

@<TRIPOS>ATOM
      1 C           0.0509    0.0309    0.0002 C.ar    1  LIG1        0.0253
      2 C           1.4592    0.0309    0.0002 C.ar    1  LIG1       -0.0375
      3 C          -0.6045    1.2792    0.0002 C.ar    1  LIG1       -0.0453
      4 C           2.1849    1.2200   -0.0004 C.ar    1  LIG1       -0.0024
      5 H           1.9850   -0.9213    0.0004 H       1  LIG1        0.0636
      6 C           0.1195    2.4666   -0.0004 C.ar    1  LIG1       -0.0468
      7 C           1.5181    2.4458   -0.0008 C.ar    1  LIG1        0.0126
      8 H          -0.4090    3.4165   -0.0003 H       1  LIG1        0.0629
      9 H          -1.9035    1.3287    0.0016 H       1  LIG1        0.0630
     10 C          -0.5708   -1.1108    0.0005 C.1     1  LIG1       -0.0696
     11 C          -1.1453   -2.1657    0.0008 C.1     1  LIG1       -0.1139
     12 H          -1.6571   -3.1054    0.0010 H       1  LIG1        0.1232
     13 S           2.1896    3.5589   -0.0012 S.3     1  LIG1       -0.1420
     14 H           1.3580    4.5712   -0.0013 H       1  LIG1        0.1071
     15 C           4.1518   -0.0586    0.0215 C.ar    1  LIG1        0.0330
     16 C           5.5600   -0.0449    0.0220 C.ar    1  LIG1       -0.0369
     17 C           3.4843    1.1831   -0.0005 C.ar    1  LIG1       -0.0004
     18 C           6.2742    1.1510    0.0009 C.ar    1  LIG1       -0.0023
     19 H           6.0951   -0.9918    0.0390 H       1  LIG1        0.0636
     20 C           4.1968    2.3773   -0.0216 C.ar    1  LIG1       -0.0390
     21 C           5.5955    2.3701   -0.0212 C.ar    1  LIG1        0.0131
     22 H           3.6591    3.3219   -0.0383 H       1  LIG1        0.0635
     23 C           3.5412   -1.2061    0.0416 C.1     1  LIG1       -0.0690
     24 C           2.9769   -2.2663    0.0601 C.1     1  LIG1       -0.1139
     25 H           2.4743   -3.2108    0.0766 H       1  LIG1        0.1232
     26 S           6.2561    3.4895   -0.0408 S.3     1  LIG1       -0.1420
     27 H           5.4148    4.4936   -0.0474 H       1  LIG1        0.1071
     28 C           8.2534   -0.1084    0.0245 C.ar    1  LIG1        0.0325
     29 C           9.6614   -0.0811    0.0261 C.ar    1  LIG1       -0.0447
     30 C           7.5739    1.1267    0.0018 C.ar    1  LIG1       -0.0004
     31 C          10.3639    1.1217    0.0055 C.ar    1  LIG1       -0.0474
     32 H          10.2056   -1.0227    0.0436 H       1  LIG1        0.0630
     33 C           8.2747    2.3278   -0.0187 C.ar    1  LIG1       -0.0396
     34 C           9.6734    2.3341   -0.0171 C.ar    1  LIG1        0.0054
     35 H           7.7279    3.2671   -0.0358 H       1  LIG1        0.0635
     36 H          11.6639    1.1101    0.0076 H       1  LIG1        0.0629
     37 C           7.6539   -1.2618    0.0440 C.1     1  LIG1       -0.0691
     38 C           7.1000   -2.3275    0.0621 C.1     1  LIG1       -0.1139
     39 H           6.6066   -3.2768    0.0782 H       1  LIG1        0.1232
     40 S          10.3232    3.4599   -0.0362 S.3     1  LIG1       -0.1426
     41 H           9.4722    4.4559   -0.0426 H       1  LIG1        0.1071
@<TRIPOS>BOND
     1    27    26    1
     2    41    40    1
     3    26    21    1
     4    22    20    1
     5    40    34    1
     6    35    33    1
     7    20    21   ar
     8    20    17   ar
     9    21    18   ar
    10    33    34   ar
    11    33    30   ar
    12    34    31   ar
    13    14    13    1
    14    13     7    1
    15     7     6   ar
    16     7     4   ar
    17    17     4    1
    18    17    15   ar
    19     6     8    1
    20     6     3   ar
    21     4     2   ar
    22     2     1   ar
    23     2     5    1
    24     3     1   ar
    25     3     9    1
    26     1    10    1
    27    10    11    3
    28    11    12    1
    29    18    30    1
    30    18    16   ar
    31    30    28   ar
    32    31    36    1
    33    31    29   ar
    34    15    16   ar
    35    15    23    1
    36    16    19    1
    37    28    29   ar
    38    28    37    1
    39    29    32    1
    40    23    24    3
    41    37    38    3
    42    24    25    1
    43    38    39    1
