@<TRIPOS>MOLECULE
mol_data/noopt/geoms/mol2/4eg4eg.out
 28 29 0 0 0
SMALL
GASTEIGER

@<TRIPOS>ATOM
      1 C           0.0509    0.0309    0.0002 C.ar    1  LIG1        0.0253
      2 C           1.4592    0.0309    0.0002 C.ar    1  LIG1       -0.0375
      3 C          -0.6045    1.2792    0.0002 C.ar    1  LIG1       -0.0453
      4 C           2.1849    1.2200   -0.0004 C.ar    1  LIG1       -0.0024
      5 H           1.9850   -0.9213    0.0004 H       1  LIG1        0.0636
      6 C           0.1195    2.4666   -0.0004 C.ar    1  LIG1       -0.0468
      7 C           1.5181    2.4458   -0.0008 C.ar    1  LIG1        0.0126
      8 H          -0.4090    3.4165   -0.0003 H       1  LIG1        0.0629
      9 H          -1.9035    1.3287    0.0016 H       1  LIG1        0.0630
     10 C          -0.5708   -1.1108    0.0005 C.1     1  LIG1       -0.0696
     11 C          -1.1453   -2.1657    0.0008 C.1     1  LIG1       -0.1139
     12 H          -1.6571   -3.1054    0.0010 H       1  LIG1        0.1232
     13 S           2.1896    3.5589   -0.0012 S.3     1  LIG1       -0.1420
     14 H           1.3580    4.5712   -0.0013 H       1  LIG1        0.1071
     15 C           4.1518   -0.0588    0.0002 C.ar    1  LIG1        0.0325
     16 C           5.5600   -0.0451    0.0016 C.ar    1  LIG1       -0.0447
     17 C           3.4843    1.1831   -0.0005 C.ar    1  LIG1       -0.0004
     18 C           6.2742    1.1510    0.0017 C.ar    1  LIG1       -0.0474
     19 H           6.0950   -0.9922    0.0024 H       1  LIG1        0.0630
     20 C           4.1968    2.3775   -0.0004 C.ar    1  LIG1       -0.0396
     21 C           5.5955    2.3702    0.0006 C.ar    1  LIG1        0.0054
     22 H           3.6591    3.3222   -0.0009 H       1  LIG1        0.0635
     23 H           7.5740    1.1267    0.0029 H       1  LIG1        0.0629
     24 C           3.5412   -1.2064   -0.0001 C.1     1  LIG1       -0.0691
     25 C           2.9769   -2.2669   -0.0003 C.1     1  LIG1       -0.1139
     26 H           2.4743   -3.2115   -0.0006 H       1  LIG1        0.1232
     27 S           6.2561    3.4898    0.0008 S.3     1  LIG1       -0.1426
     28 H           5.4148    4.4939    0.0009 H       1  LIG1        0.1071
@<TRIPOS>BOND
     1    14    13    1
     2    13     7    1
     3    22    20    1
     4     7     4   ar
     5     7     6   ar
     6    26    25    1
     7    17    20   ar
     8    17     4    1
     9    17    15   ar
    10    20    21   ar
    11     4     2   ar
    12     6     8    1
    13     6     3   ar
    14    25    24    3
    15    24    15    1
    16     2     1   ar
    17     2     5    1
    18     3     1   ar
    19     3     9    1
    20     1    10    1
    21    15    16   ar
    22    10    11    3
    23    21    27    1
    24    21    18   ar
    25    11    12    1
    26    27    28    1
    27    16    18   ar
    28    16    19    1
    29    18    23    1
