@<TRIPOS>MOLECULE
mol_data/noopt/geoms/mol2/4eg4eg-4eg4eg-.out
 54 57 0 0 0
SMALL
GASTEIGER

@<TRIPOS>ATOM
      1 C           0.0509    0.0309    0.0002 C.ar    1  LIG1        0.0253
      2 C           1.4592    0.0309    0.0002 C.ar    1  LIG1       -0.0375
      3 C          -0.6045    1.2792    0.0002 C.ar    1  LIG1       -0.0453
      4 C           2.1849    1.2200   -0.0004 C.ar    1  LIG1       -0.0024
      5 H           1.9850   -0.9213    0.0004 H       1  LIG1        0.0636
      6 C           0.1195    2.4666   -0.0004 C.ar    1  LIG1       -0.0468
      7 C           1.5181    2.4458   -0.0008 C.ar    1  LIG1        0.0126
      8 H          -0.4090    3.4165   -0.0003 H       1  LIG1        0.0629
      9 H          -1.9035    1.3287    0.0016 H       1  LIG1        0.0630
     10 C          -0.5708   -1.1108    0.0005 C.1     1  LIG1       -0.0696
     11 C          -1.1453   -2.1657    0.0008 C.1     1  LIG1       -0.1139
     12 H          -1.6571   -3.1054    0.0010 H       1  LIG1        0.1232
     13 S           2.1896    3.5589   -0.0012 S.3     1  LIG1       -0.1420
     14 H           1.3580    4.5712   -0.0013 H       1  LIG1        0.1071
     15 C           4.1518   -0.0586    0.0215 C.ar    1  LIG1        0.0330
     16 C           5.5600   -0.0449    0.0220 C.ar    1  LIG1       -0.0369
     17 C           3.4843    1.1831   -0.0005 C.ar    1  LIG1       -0.0004
     18 C           6.2742    1.1510    0.0009 C.ar    1  LIG1       -0.0023
     19 H           6.0951   -0.9918    0.0390 H       1  LIG1        0.0636
     20 C           4.1968    2.3773   -0.0216 C.ar    1  LIG1       -0.0390
     21 C           5.5955    2.3701   -0.0212 C.ar    1  LIG1        0.0131
     22 H           3.6591    3.3219   -0.0383 H       1  LIG1        0.0635
     23 C           3.5412   -1.2061    0.0416 C.1     1  LIG1       -0.0690
     24 C           2.9769   -2.2663    0.0601 C.1     1  LIG1       -0.1139
     25 H           2.4743   -3.2108    0.0766 H       1  LIG1        0.1232
     26 S           6.2561    3.4895   -0.0408 S.3     1  LIG1       -0.1420
     27 H           5.4148    4.4936   -0.0474 H       1  LIG1        0.1071
     28 C           8.2534   -0.1086    0.0031 C.ar    1  LIG1        0.0330
     29 C           9.6614   -0.0813    0.0057 C.ar    1  LIG1       -0.0369
     30 C           7.5739    1.1267    0.0018 C.ar    1  LIG1       -0.0004
     31 C          10.3639    1.1217    0.0064 C.ar    1  LIG1       -0.0023
     32 H          10.2056   -1.0231    0.0069 H       1  LIG1        0.0636
     33 C           8.2747    2.3280    0.0025 C.ar    1  LIG1       -0.0390
     34 C           9.6734    2.3343    0.0046 C.ar    1  LIG1        0.0131
     35 H           7.7278    3.2674    0.0016 H       1  LIG1        0.0635
     36 C           7.6539   -1.2622    0.0024 C.1     1  LIG1       -0.0690
     37 C           7.1000   -2.3280    0.0017 C.1     1  LIG1       -0.1139
     38 H           6.6066   -3.2775    0.0011 H       1  LIG1        0.1232
     39 S          10.3231    3.4603    0.0054 S.3     1  LIG1       -0.1420
     40 H           9.4721    4.4562    0.0057 H       1  LIG1        0.1071
     41 C          12.3552   -0.1185    0.0320 C.ar    1  LIG1        0.0325
     42 C          13.7629   -0.0774    0.0350 C.ar    1  LIG1       -0.0447
     43 C          11.6638    1.1100    0.0086 C.ar    1  LIG1       -0.0004
     44 C          14.4537    1.1321    0.0151 C.ar    1  LIG1       -0.0474
     45 H          14.3162   -1.0138    0.0530 H       1  LIG1        0.0630
     46 C          12.3529    2.3178   -0.0112 C.ar    1  LIG1       -0.0396
     47 C          13.7516    2.3378   -0.0082 C.ar    1  LIG1        0.0054
     48 H          11.7970    3.2518   -0.0289 H       1  LIG1        0.0635
     49 H          15.7537    1.1331    0.0185 H       1  LIG1        0.0629
     50 C          11.7669   -1.2776    0.0509 C.1     1  LIG1       -0.0691
     51 C          11.2234   -2.3486    0.0685 C.1     1  LIG1       -0.1139
     52 H          10.7392   -3.3027    0.0841 H       1  LIG1        0.1232
     53 S          14.3904    3.4698   -0.0267 S.3     1  LIG1       -0.1426
     54 H          13.5298    4.4574   -0.0329 H       1  LIG1        0.1071
@<TRIPOS>BOND
     1    27    26    1
     2    26    21    1
     3    22    20    1
     4    54    53    1
     5    48    46    1
     6    53    47    1
     7    20    21   ar
     8    20    17   ar
     9    21    18   ar
    10    46    47   ar
    11    46    43   ar
    12    47    44   ar
    13    14    13    1
    14    13     7    1
    15     7     6   ar
    16     7     4   ar
    17    17     4    1
    18    17    15   ar
    19     6     8    1
    20     6     3   ar
    21     4     2   ar
    22     1     2   ar
    23     1     3   ar
    24     1    10    1
    25     2     5    1
    26     3     9    1
    27    10    11    3
    28    11    12    1
    29    18    30    1
    30    18    16   ar
    31    38    37    1
    32    35    33    1
    33    37    36    3
    34    30    33   ar
    35    30    28   ar
    36    36    28    1
    37    33    34   ar
    38    28    29   ar
    39    34    39    1
    40    34    31   ar
    41    39    40    1
    42    29    31   ar
    43    29    32    1
    44    31    43    1
    45    43    41   ar
    46    44    49    1
    47    44    42   ar
    48    15    16   ar
    49    15    23    1
    50    16    19    1
    51    41    42   ar
    52    41    50    1
    53    42    45    1
    54    23    24    3
    55    50    51    3
    56    24    25    1
    57    51    52    1
