@<TRIPOS>MOLECULE
mol_data/noopt/geoms/mol2/4eg4eg-.out
 28 29 0 0 0
SMALL
GASTEIGER

@<TRIPOS>ATOM
      1 C           0.0509    0.0309    0.0002 C.ar    1  LIG1        0.0253
      2 C           1.4592    0.0309    0.0002 C.ar    1  LIG1       -0.0375
      3 C          -0.6045    1.2792    0.0002 C.ar    1  LIG1       -0.0453
      4 C           2.1849    1.2200   -0.0004 C.ar    1  LIG1       -0.0024
      5 H           1.9850   -0.9213    0.0004 H       1  LIG1        0.0636
      6 C           0.1195    2.4666   -0.0004 C.ar    1  LIG1       -0.0468
      7 C           1.5181    2.4458   -0.0008 C.ar    1  LIG1        0.0126
      8 H          -0.4090    3.4165   -0.0003 H       1  LIG1        0.0629
      9 H          -1.9035    1.3287    0.0016 H       1  LIG1        0.0630
     10 C          -0.5708   -1.1108    0.0005 C.1     1  LIG1       -0.0696
     11 C          -1.1453   -2.1657    0.0008 C.1     1  LIG1       -0.1139
     12 H          -1.6571   -3.1054    0.0010 H       1  LIG1        0.1232
     13 S           2.1896    3.5589   -0.0012 S.3     1  LIG1       -0.1420
     14 H           1.3580    4.5712   -0.0013 H       1  LIG1        0.1071
     15 C           4.1518   -0.0586    0.0215 C.ar    1  LIG1        0.0325
     16 C           5.5600   -0.0449    0.0220 C.ar    1  LIG1       -0.0447
     17 C           3.4843    1.1831   -0.0005 C.ar    1  LIG1       -0.0004
     18 C           6.2742    1.1510    0.0009 C.ar    1  LIG1       -0.0474
     19 H           6.0951   -0.9918    0.0390 H       1  LIG1        0.0630
     20 C           4.1968    2.3773   -0.0216 C.ar    1  LIG1       -0.0396
     21 C           5.5955    2.3701   -0.0212 C.ar    1  LIG1        0.0054
     22 H           3.6591    3.3219   -0.0383 H       1  LIG1        0.0635
     23 H           7.5740    1.1267    0.0018 H       1  LIG1        0.0629
     24 C           3.5412   -1.2061    0.0416 C.1     1  LIG1       -0.0691
     25 C           2.9769   -2.2663    0.0601 C.1     1  LIG1       -0.1139
     26 H           2.4743   -3.2108    0.0766 H       1  LIG1        0.1232
     27 S           6.2561    3.4895   -0.0408 S.3     1  LIG1       -0.1426
     28 H           5.4148    4.4936   -0.0474 H       1  LIG1        0.1071
@<TRIPOS>BOND
     1    28    27    1
     2    27    21    1
     3    22    20    1
     4    20    21   ar
     5    20    17   ar
     6    21    18   ar
     7    14    13    1
     8    13     7    1
     9     7     4   ar
    10     7     6   ar
    11    17     4    1
    12    17    15   ar
    13     4     2   ar
    14     6     8    1
    15     6     3   ar
    16     1     3   ar
    17     1     2   ar
    18     1    10    1
    19     3     9    1
    20     2     5    1
    21    10    11    3
    22    11    12    1
    23    18    23    1
    24    18    16   ar
    25    15    16   ar
    26    15    24    1
    27    16    19    1
    28    24    25    3
    29    25    26    1
