@<TRIPOS>MOLECULE
mol_data/noopt/geoms/mol2/4eg4eg4eg-.out
 41 43 0 0 0
SMALL
GASTEIGER

@<TRIPOS>ATOM
      1 C           0.0509    0.0309    0.0002 C.ar    1  LIG1        0.0253
      2 C           1.4592    0.0309    0.0002 C.ar    1  LIG1       -0.0375
      3 C          -0.6045    1.2792    0.0002 C.ar    1  LIG1       -0.0453
      4 C           2.1849    1.2200   -0.0004 C.ar    1  LIG1       -0.0024
      5 H           1.9850   -0.9213    0.0004 H       1  LIG1        0.0636
      6 C           0.1195    2.4666   -0.0004 C.ar    1  LIG1       -0.0468
      7 C           1.5181    2.4458   -0.0008 C.ar    1  LIG1        0.0126
      8 H          -0.4090    3.4165   -0.0003 H       1  LIG1        0.0629
      9 H          -1.9035    1.3287    0.0016 H       1  LIG1        0.0630
     10 C          -0.5708   -1.1108    0.0005 C.1     1  LIG1       -0.0696
     11 C          -1.1453   -2.1657    0.0008 C.1     1  LIG1       -0.1139
     12 H          -1.6571   -3.1054    0.0010 H       1  LIG1        0.1232
     13 S           2.1896    3.5589   -0.0012 S.3     1  LIG1       -0.1420
     14 H           1.3580    4.5712   -0.0013 H       1  LIG1        0.1071
     15 C           4.1518   -0.0588    0.0002 C.ar    1  LIG1        0.0330
     16 C           5.5600   -0.0451    0.0016 C.ar    1  LIG1       -0.0369
     17 C           3.4843    1.1831   -0.0005 C.ar    1  LIG1       -0.0004
     18 C           6.2742    1.1510    0.0017 C.ar    1  LIG1       -0.0023
     19 H           6.0950   -0.9922    0.0024 H       1  LIG1        0.0636
     20 C           4.1968    2.3775   -0.0004 C.ar    1  LIG1       -0.0390
     21 C           5.5955    2.3702    0.0006 C.ar    1  LIG1        0.0131
     22 H           3.6591    3.3222   -0.0009 H       1  LIG1        0.0635
     23 C           3.5412   -1.2064   -0.0001 C.1     1  LIG1       -0.0690
     24 C           2.9769   -2.2669   -0.0003 C.1     1  LIG1       -0.1139
     25 H           2.4743   -3.2115   -0.0006 H       1  LIG1        0.1232
     26 S           6.2561    3.4898    0.0008 S.3     1  LIG1       -0.1420
     27 H           5.4148    4.4939    0.0009 H       1  LIG1        0.1071
     28 C           8.2534   -0.1085    0.0256 C.ar    1  LIG1        0.0325
     29 C           9.6614   -0.0811    0.0275 C.ar    1  LIG1       -0.0447
     30 C           7.5739    1.1267    0.0029 C.ar    1  LIG1       -0.0004
     31 C          10.3639    1.1216    0.0070 C.ar    1  LIG1       -0.0474
     32 H          10.2055   -1.0228    0.0451 H       1  LIG1        0.0630
     33 C           8.2747    2.3277   -0.0175 C.ar    1  LIG1       -0.0396
     34 C           9.6735    2.3341   -0.0157 C.ar    1  LIG1        0.0054
     35 H           7.7279    3.2670   -0.0348 H       1  LIG1        0.0635
     36 H          11.6639    1.1100    0.0093 H       1  LIG1        0.0629
     37 C           7.6539   -1.2618    0.0451 C.1     1  LIG1       -0.0691
     38 C           7.0999   -2.3275    0.0631 C.1     1  LIG1       -0.1139
     39 H           6.6065   -3.2768    0.0791 H       1  LIG1        0.1232
     40 S          10.3232    3.4598   -0.0347 S.3     1  LIG1       -0.1426
     41 H           9.4722    4.4558   -0.0411 H       1  LIG1        0.1071
@<TRIPOS>BOND
     1    41    40    1
     2    35    33    1
     3    40    34    1
     4    33    34   ar
     5    33    30   ar
     6    34    31   ar
     7    14    13    1
     8    13     7    1
     9    22    20    1
    10     7     6   ar
    11     7     4   ar
    12    25    24    1
    13    17    20   ar
    14    17     4    1
    15    17    15   ar
    16    20    21   ar
    17     6     8    1
    18     6     3   ar
    19     4     2   ar
    20    24    23    3
    21    23    15    1
    22     1     2   ar
    23     1     3   ar
    24     1    10    1
    25     2     5    1
    26     3     9    1
    27    15    16   ar
    28    10    11    3
    29    21    26    1
    30    21    18   ar
    31    11    12    1
    32    26    27    1
    33    16    18   ar
    34    16    19    1
    35    18    30    1
    36    30    28   ar
    37    31    36    1
    38    31    29   ar
    39    28    29   ar
    40    28    37    1
    41    29    32    1
    42    37    38    3
    43    38    39    1
