@<TRIPOS>MOLECULE
mol_data/noopt/geoms/mol2/4eg4eg-4eg4eg.out
 54 57 0 0 0
SMALL
GASTEIGER

@<TRIPOS>ATOM
      1 C           0.0509    0.0309    0.0002 C.ar    1  LIG1        0.0253
      2 C           1.4592    0.0309    0.0002 C.ar    1  LIG1       -0.0375
      3 C          -0.6045    1.2792    0.0002 C.ar    1  LIG1       -0.0453
      4 C           2.1849    1.2200   -0.0004 C.ar    1  LIG1       -0.0024
      5 H           1.9850   -0.9213    0.0004 H       1  LIG1        0.0636
      6 C           0.1195    2.4666   -0.0004 C.ar    1  LIG1       -0.0468
      7 C           1.5181    2.4458   -0.0008 C.ar    1  LIG1        0.0126
      8 H          -0.4090    3.4165   -0.0003 H       1  LIG1        0.0629
      9 H          -1.9035    1.3287    0.0016 H       1  LIG1        0.0630
     10 C          -0.5708   -1.1108    0.0005 C.1     1  LIG1       -0.0696
     11 C          -1.1453   -2.1657    0.0008 C.1     1  LIG1       -0.1139
     12 H          -1.6571   -3.1054    0.0010 H       1  LIG1        0.1232
     13 S           2.1896    3.5589   -0.0012 S.3     1  LIG1       -0.1420
     14 H           1.3580    4.5712   -0.0013 H       1  LIG1        0.1071
     15 C           4.1518   -0.0586    0.0215 C.ar    1  LIG1        0.0330
     16 C           5.5600   -0.0449    0.0220 C.ar    1  LIG1       -0.0369
     17 C           3.4843    1.1831   -0.0005 C.ar    1  LIG1       -0.0004
     18 C           6.2742    1.1510    0.0009 C.ar    1  LIG1       -0.0023
     19 H           6.0951   -0.9918    0.0390 H       1  LIG1        0.0636
     20 C           4.1968    2.3773   -0.0216 C.ar    1  LIG1       -0.0390
     21 C           5.5955    2.3701   -0.0212 C.ar    1  LIG1        0.0131
     22 H           3.6591    3.3219   -0.0383 H       1  LIG1        0.0635
     23 C           3.5412   -1.2061    0.0416 C.1     1  LIG1       -0.0690
     24 C           2.9769   -2.2663    0.0601 C.1     1  LIG1       -0.1139
     25 H           2.4743   -3.2108    0.0766 H       1  LIG1        0.1232
     26 S           6.2561    3.4895   -0.0408 S.3     1  LIG1       -0.1420
     27 H           5.4148    4.4936   -0.0474 H       1  LIG1        0.1071
     28 C           8.2534   -0.1086    0.0031 C.ar    1  LIG1        0.0330
     29 C           9.6614   -0.0813    0.0057 C.ar    1  LIG1       -0.0369
     30 C           7.5739    1.1267    0.0018 C.ar    1  LIG1       -0.0004
     31 C          10.3639    1.1217    0.0064 C.ar    1  LIG1       -0.0023
     32 H          10.2056   -1.0231    0.0069 H       1  LIG1        0.0636
     33 C           8.2747    2.3280    0.0025 C.ar    1  LIG1       -0.0390
     34 C           9.6734    2.3343    0.0046 C.ar    1  LIG1        0.0131
     35 H           7.7278    3.2674    0.0016 H       1  LIG1        0.0635
     36 C           7.6539   -1.2622    0.0024 C.1     1  LIG1       -0.0690
     37 C           7.1000   -2.3280    0.0017 C.1     1  LIG1       -0.1139
     38 H           6.6066   -3.2775    0.0011 H       1  LIG1        0.1232
     39 S          10.3231    3.4603    0.0054 S.3     1  LIG1       -0.1420
     40 H           9.4721    4.4562    0.0057 H       1  LIG1        0.1071
     41 C          12.3552   -0.1187    0.0106 C.ar    1  LIG1        0.0325
     42 C          13.7629   -0.0777    0.0146 C.ar    1  LIG1       -0.0447
     43 C          11.6638    1.1100    0.0086 C.ar    1  LIG1       -0.0004
     44 C          14.4537    1.1321    0.0159 C.ar    1  LIG1       -0.0474
     45 H          14.3162   -1.0142    0.0164 H       1  LIG1        0.0630
     46 C          12.3529    2.3180    0.0100 C.ar    1  LIG1       -0.0396
     47 C          13.7515    2.3379    0.0135 C.ar    1  LIG1        0.0054
     48 H          11.7970    3.2521    0.0085 H       1  LIG1        0.0635
     49 H          15.7537    1.1330    0.0195 H       1  LIG1        0.0629
     50 C          11.7670   -1.2780    0.0093 C.1     1  LIG1       -0.0691
     51 C          11.2235   -2.3491    0.0081 C.1     1  LIG1       -0.1139
     52 H          10.7393   -3.3033    0.0070 H       1  LIG1        0.1232
     53 S          14.3903    3.4701    0.0149 S.3     1  LIG1       -0.1426
     54 H          13.5296    4.4577    0.0154 H       1  LIG1        0.1071
@<TRIPOS>BOND
     1    27    26    1
     2    26    21    1
     3    22    20    1
     4    20    21   ar
     5    20    17   ar
     6    21    18   ar
     7    14    13    1
     8    13     7    1
     9     7     4   ar
    10     7     6   ar
    11    17     4    1
    12    17    15   ar
    13     4     2   ar
    14     6     8    1
    15     6     3   ar
    16     1     3   ar
    17     1     2   ar
    18     1    10    1
    19     3     9    1
    20     2     5    1
    21    10    11    3
    22    11    12    1
    23    18    30    1
    24    18    16   ar
    25    38    37    1
    26    35    33    1
    27    37    36    3
    28    30    33   ar
    29    30    28   ar
    30    36    28    1
    31    33    34   ar
    32    28    29   ar
    33    34    39    1
    34    34    31   ar
    35    39    40    1
    36    29    31   ar
    37    29    32    1
    38    31    43    1
    39    52    51    1
    40    51    50    3
    41    48    46    1
    42    43    46   ar
    43    43    41   ar
    44    50    41    1
    45    46    47   ar
    46    41    42   ar
    47    47    53    1
    48    47    44   ar
    49    42    44   ar
    50    42    45    1
    51    53    54    1
    52    44    49    1
    53    15    16   ar
    54    15    23    1
    55    16    19    1
    56    23    24    3
    57    24    25    1
