@<TRIPOS>MOLECULE
mol_data/noopt/geoms/mol2/4eg4eg-4eg-4eg.out
 54 57 0 0 0
SMALL
GASTEIGER

@<TRIPOS>ATOM
      1 C           0.0509    0.0309    0.0002 C.ar    1  LIG1        0.0253
      2 C           1.4592    0.0309    0.0002 C.ar    1  LIG1       -0.0375
      3 C          -0.6045    1.2792    0.0002 C.ar    1  LIG1       -0.0453
      4 C           2.1849    1.2200   -0.0004 C.ar    1  LIG1       -0.0024
      5 H           1.9850   -0.9213    0.0004 H       1  LIG1        0.0636
      6 C           0.1195    2.4666   -0.0004 C.ar    1  LIG1       -0.0468
      7 C           1.5181    2.4458   -0.0008 C.ar    1  LIG1        0.0126
      8 H          -0.4090    3.4165   -0.0003 H       1  LIG1        0.0629
      9 H          -1.9035    1.3287    0.0016 H       1  LIG1        0.0630
     10 C          -0.5708   -1.1108    0.0005 C.1     1  LIG1       -0.0696
     11 C          -1.1453   -2.1657    0.0008 C.1     1  LIG1       -0.1139
     12 H          -1.6571   -3.1054    0.0010 H       1  LIG1        0.1232
     13 S           2.1896    3.5589   -0.0012 S.3     1  LIG1       -0.1420
     14 H           1.3580    4.5712   -0.0013 H       1  LIG1        0.1071
     15 C           4.1518   -0.0586    0.0215 C.ar    1  LIG1        0.0330
     16 C           5.5600   -0.0449    0.0220 C.ar    1  LIG1       -0.0369
     17 C           3.4843    1.1831   -0.0005 C.ar    1  LIG1       -0.0004
     18 C           6.2742    1.1510    0.0009 C.ar    1  LIG1       -0.0023
     19 H           6.0951   -0.9918    0.0390 H       1  LIG1        0.0636
     20 C           4.1968    2.3773   -0.0216 C.ar    1  LIG1       -0.0390
     21 C           5.5955    2.3701   -0.0212 C.ar    1  LIG1        0.0131
     22 H           3.6591    3.3219   -0.0383 H       1  LIG1        0.0635
     23 C           3.5412   -1.2061    0.0416 C.1     1  LIG1       -0.0690
     24 C           2.9769   -2.2663    0.0601 C.1     1  LIG1       -0.1139
     25 H           2.4743   -3.2108    0.0766 H       1  LIG1        0.1232
     26 S           6.2561    3.4895   -0.0408 S.3     1  LIG1       -0.1420
     27 H           5.4148    4.4936   -0.0474 H       1  LIG1        0.1071
     28 C           8.2534   -0.1084    0.0245 C.ar    1  LIG1        0.0330
     29 C           9.6614   -0.0811    0.0261 C.ar    1  LIG1       -0.0369
     30 C           7.5739    1.1267    0.0018 C.ar    1  LIG1       -0.0004
     31 C          10.3639    1.1217    0.0055 C.ar    1  LIG1       -0.0023
     32 H          10.2056   -1.0227    0.0436 H       1  LIG1        0.0636
     33 C           8.2747    2.3278   -0.0187 C.ar    1  LIG1       -0.0390
     34 C           9.6734    2.3341   -0.0171 C.ar    1  LIG1        0.0131
     35 H           7.7279    3.2671   -0.0358 H       1  LIG1        0.0635
     36 C           7.6539   -1.2618    0.0440 C.1     1  LIG1       -0.0690
     37 C           7.1000   -2.3275    0.0621 C.1     1  LIG1       -0.1139
     38 H           6.6066   -3.2768    0.0782 H       1  LIG1        0.1232
     39 S          10.3232    3.4599   -0.0362 S.3     1  LIG1       -0.1420
     40 H           9.4722    4.4559   -0.0426 H       1  LIG1        0.1071
     41 C          12.3553   -0.1186    0.0095 C.ar    1  LIG1        0.0325
     42 C          13.7630   -0.0776    0.0132 C.ar    1  LIG1       -0.0447
     43 C          11.6638    1.1101    0.0076 C.ar    1  LIG1       -0.0004
     44 C          14.4537    1.1322    0.0144 C.ar    1  LIG1       -0.0474
     45 H          14.3163   -1.0141    0.0149 H       1  LIG1        0.0630
     46 C          12.3529    2.3181    0.0088 C.ar    1  LIG1       -0.0396
     47 C          13.7515    2.3380    0.0121 C.ar    1  LIG1        0.0054
     48 H          11.7970    3.2522    0.0074 H       1  LIG1        0.0635
     49 H          15.7537    1.1331    0.0178 H       1  LIG1        0.0629
     50 C          11.7670   -1.2779    0.0082 C.1     1  LIG1       -0.0691
     51 C          11.2235   -2.3491    0.0071 C.1     1  LIG1       -0.1139
     52 H          10.7394   -3.3033    0.0061 H       1  LIG1        0.1232
     53 S          14.3902    3.4702    0.0134 S.3     1  LIG1       -0.1426
     54 H          13.5296    4.4578    0.0138 H       1  LIG1        0.1071
@<TRIPOS>BOND
     1    27    26    1
     2    40    39    1
     3    26    21    1
     4    22    20    1
     5    39    34    1
     6    35    33    1
     7    20    21   ar
     8    20    17   ar
     9    21    18   ar
    10    33    34   ar
    11    33    30   ar
    12    34    31   ar
    13    14    13    1
    14    13     7    1
    15     7     4   ar
    16     7     6   ar
    17    17     4    1
    18    17    15   ar
    19     4     2   ar
    20     6     8    1
    21     6     3   ar
    22     2     1   ar
    23     2     5    1
    24     3     1   ar
    25     3     9    1
    26     1    10    1
    27    10    11    3
    28    11    12    1
    29    18    30    1
    30    18    16   ar
    31    30    28   ar
    32    31    43    1
    33    31    29   ar
    34    52    51    1
    35    51    50    3
    36    48    46    1
    37    43    46   ar
    38    43    41   ar
    39    50    41    1
    40    46    47   ar
    41    41    42   ar
    42    47    53    1
    43    47    44   ar
    44    42    44   ar
    45    42    45    1
    46    53    54    1
    47    44    49    1
    48    15    16   ar
    49    15    23    1
    50    16    19    1
    51    28    29   ar
    52    28    36    1
    53    29    32    1
    54    23    24    3
    55    36    37    3
    56    24    25    1
    57    37    38    1
