@<TRIPOS>MOLECULE
mol_data/noopt/geoms/mol2/4eg4eg4eg.out
 41 43 0 0 0
SMALL
GASTEIGER

@<TRIPOS>ATOM
      1 C           0.0509    0.0309    0.0002 C.ar    1  LIG1        0.0253
      2 C           1.4592    0.0309    0.0002 C.ar    1  LIG1       -0.0375
      3 C          -0.6045    1.2792    0.0002 C.ar    1  LIG1       -0.0453
      4 C           2.1849    1.2200   -0.0004 C.ar    1  LIG1       -0.0024
      5 H           1.9850   -0.9213    0.0004 H       1  LIG1        0.0636
      6 C           0.1195    2.4666   -0.0004 C.ar    1  LIG1       -0.0468
      7 C           1.5181    2.4458   -0.0008 C.ar    1  LIG1        0.0126
      8 H          -0.4090    3.4165   -0.0003 H       1  LIG1        0.0629
      9 H          -1.9035    1.3287    0.0016 H       1  LIG1        0.0630
     10 C          -0.5708   -1.1108    0.0005 C.1     1  LIG1       -0.0696
     11 C          -1.1453   -2.1657    0.0008 C.1     1  LIG1       -0.1139
     12 H          -1.6571   -3.1054    0.0010 H       1  LIG1        0.1232
     13 S           2.1896    3.5589   -0.0012 S.3     1  LIG1       -0.1420
     14 H           1.3580    4.5712   -0.0013 H       1  LIG1        0.1071
     15 C           4.1518   -0.0588    0.0002 C.ar    1  LIG1        0.0330
     16 C           5.5600   -0.0451    0.0016 C.ar    1  LIG1       -0.0369
     17 C           3.4843    1.1831   -0.0005 C.ar    1  LIG1       -0.0004
     18 C           6.2742    1.1510    0.0017 C.ar    1  LIG1       -0.0023
     19 H           6.0950   -0.9922    0.0024 H       1  LIG1        0.0636
     20 C           4.1968    2.3775   -0.0004 C.ar    1  LIG1       -0.0390
     21 C           5.5955    2.3702    0.0006 C.ar    1  LIG1        0.0131
     22 H           3.6591    3.3222   -0.0009 H       1  LIG1        0.0635
     23 C           3.5412   -1.2064   -0.0001 C.1     1  LIG1       -0.0690
     24 C           2.9769   -2.2669   -0.0003 C.1     1  LIG1       -0.1139
     25 H           2.4743   -3.2115   -0.0006 H       1  LIG1        0.1232
     26 S           6.2561    3.4898    0.0008 S.3     1  LIG1       -0.1420
     27 H           5.4148    4.4939    0.0009 H       1  LIG1        0.1071
     28 C           8.2534   -0.1087    0.0043 C.ar    1  LIG1        0.0325
     29 C           9.6614   -0.0814    0.0071 C.ar    1  LIG1       -0.0447
     30 C           7.5739    1.1267    0.0029 C.ar    1  LIG1       -0.0004
     31 C          10.3639    1.1216    0.0079 C.ar    1  LIG1       -0.0474
     32 H          10.2056   -1.0232    0.0084 H       1  LIG1        0.0630
     33 C           8.2747    2.3279    0.0036 C.ar    1  LIG1       -0.0396
     34 C           9.6734    2.3342    0.0060 C.ar    1  LIG1        0.0054
     35 H           7.7279    3.2674    0.0026 H       1  LIG1        0.0635
     36 H          11.6639    1.1099    0.0104 H       1  LIG1        0.0629
     37 C           7.6539   -1.2622    0.0034 C.1     1  LIG1       -0.0691
     38 C           7.1000   -2.3281    0.0026 C.1     1  LIG1       -0.1139
     39 H           6.6066   -3.2775    0.0019 H       1  LIG1        0.1232
     40 S          10.3232    3.4602    0.0069 S.3     1  LIG1       -0.1426
     41 H           9.4722    4.4561    0.0072 H       1  LIG1        0.1071
@<TRIPOS>BOND
     1    14    13    1
     2    13     7    1
     3    22    20    1
     4     7     4   ar
     5     7     6   ar
     6    25    24    1
     7    17    20   ar
     8    17     4    1
     9    17    15   ar
    10    20    21   ar
    11     4     2   ar
    12     6     8    1
    13     6     3   ar
    14    24    23    3
    15    23    15    1
    16     1     3   ar
    17     1     2   ar
    18     1    10    1
    19     3     9    1
    20     2     5    1
    21    15    16   ar
    22    10    11    3
    23    21    26    1
    24    21    18   ar
    25    11    12    1
    26    26    27    1
    27    16    18   ar
    28    16    19    1
    29    18    30    1
    30    39    38    1
    31    35    33    1
    32    38    37    3
    33    30    33   ar
    34    30    28   ar
    35    37    28    1
    36    33    34   ar
    37    28    29   ar
    38    34    40    1
    39    34    31   ar
    40    40    41    1
    41    29    31   ar
    42    29    32    1
    43    31    36    1
