@<TRIPOS>MOLECULE
mol_data/noopt/geoms/mol2/4eg4eg4eg4eg-.out
 54 57 0 0 0
SMALL
GASTEIGER

@<TRIPOS>ATOM
      1 C           0.0509    0.0309    0.0002 C.ar    1  LIG1        0.0253
      2 C           1.4592    0.0309    0.0002 C.ar    1  LIG1       -0.0375
      3 C          -0.6045    1.2792    0.0002 C.ar    1  LIG1       -0.0453
      4 C           2.1849    1.2200   -0.0004 C.ar    1  LIG1       -0.0024
      5 H           1.9850   -0.9213    0.0004 H       1  LIG1        0.0636
      6 C           0.1195    2.4666   -0.0004 C.ar    1  LIG1       -0.0468
      7 C           1.5181    2.4458   -0.0008 C.ar    1  LIG1        0.0126
      8 H          -0.4090    3.4165   -0.0003 H       1  LIG1        0.0629
      9 H          -1.9035    1.3287    0.0016 H       1  LIG1        0.0630
     10 C          -0.5708   -1.1108    0.0005 C.1     1  LIG1       -0.0696
     11 C          -1.1453   -2.1657    0.0008 C.1     1  LIG1       -0.1139
     12 H          -1.6571   -3.1054    0.0010 H       1  LIG1        0.1232
     13 S           2.1896    3.5589   -0.0012 S.3     1  LIG1       -0.1420
     14 H           1.3580    4.5712   -0.0013 H       1  LIG1        0.1071
     15 C           4.1518   -0.0588    0.0002 C.ar    1  LIG1        0.0330
     16 C           5.5600   -0.0451    0.0016 C.ar    1  LIG1       -0.0369
     17 C           3.4843    1.1831   -0.0005 C.ar    1  LIG1       -0.0004
     18 C           6.2742    1.1510    0.0017 C.ar    1  LIG1       -0.0023
     19 H           6.0950   -0.9922    0.0024 H       1  LIG1        0.0636
     20 C           4.1968    2.3775   -0.0004 C.ar    1  LIG1       -0.0390
     21 C           5.5955    2.3702    0.0006 C.ar    1  LIG1        0.0131
     22 H           3.6591    3.3222   -0.0009 H       1  LIG1        0.0635
     23 C           3.5412   -1.2064   -0.0001 C.1     1  LIG1       -0.0690
     24 C           2.9769   -2.2669   -0.0003 C.1     1  LIG1       -0.1139
     25 H           2.4743   -3.2115   -0.0006 H       1  LIG1        0.1232
     26 S           6.2561    3.4898    0.0008 S.3     1  LIG1       -0.1420
     27 H           5.4148    4.4939    0.0009 H       1  LIG1        0.1071
     28 C           8.2534   -0.1087    0.0043 C.ar    1  LIG1        0.0330
     29 C           9.6614   -0.0814    0.0071 C.ar    1  LIG1       -0.0369
     30 C           7.5739    1.1267    0.0029 C.ar    1  LIG1       -0.0004
     31 C          10.3639    1.1216    0.0079 C.ar    1  LIG1       -0.0023
     32 H          10.2056   -1.0232    0.0084 H       1  LIG1        0.0636
     33 C           8.2747    2.3279    0.0036 C.ar    1  LIG1       -0.0390
     34 C           9.6734    2.3342    0.0060 C.ar    1  LIG1        0.0131
     35 H           7.7279    3.2674    0.0026 H       1  LIG1        0.0635
     36 C           7.6539   -1.2622    0.0034 C.1     1  LIG1       -0.0690
     37 C           7.1000   -2.3281    0.0026 C.1     1  LIG1       -0.1139
     38 H           6.6066   -3.2775    0.0019 H       1  LIG1        0.1232
     39 S          10.3232    3.4602    0.0069 S.3     1  LIG1       -0.1420
     40 H           9.4722    4.4561    0.0072 H       1  LIG1        0.1071
     41 C          12.3552   -0.1186    0.0338 C.ar    1  LIG1        0.0325
     42 C          13.7629   -0.0776    0.0371 C.ar    1  LIG1       -0.0447
     43 C          11.6638    1.1099    0.0104 C.ar    1  LIG1       -0.0004
     44 C          14.4537    1.1319    0.0173 C.ar    1  LIG1       -0.0474
     45 H          14.3161   -1.0139    0.0552 H       1  LIG1        0.0630
     46 C          12.3530    2.3177   -0.0094 C.ar    1  LIG1       -0.0396
     47 C          13.7516    2.3376   -0.0062 C.ar    1  LIG1        0.0054
     48 H          11.7971    3.2517   -0.0272 H       1  LIG1        0.0635
     49 H          15.7537    1.1329    0.0209 H       1  LIG1        0.0629
     50 C          11.7669   -1.2777    0.0527 C.1     1  LIG1       -0.0691
     51 C          11.2233   -2.3487    0.0702 C.1     1  LIG1       -0.1139
     52 H          10.7391   -3.3028    0.0857 H       1  LIG1        0.1232
     53 S          14.3904    3.4696   -0.0245 S.3     1  LIG1       -0.1426
     54 H          13.5298    4.4573   -0.0307 H       1  LIG1        0.1071
@<TRIPOS>BOND
     1    54    53    1
     2    48    46    1
     3    53    47    1
     4    46    47   ar
     5    46    43   ar
     6    47    44   ar
     7    14    13    1
     8    13     7    1
     9    22    20    1
    10     7     6   ar
    11     7     4   ar
    12    25    24    1
    13    17    20   ar
    14    17     4    1
    15    17    15   ar
    16    20    21   ar
    17     6     8    1
    18     6     3   ar
    19     4     2   ar
    20    24    23    3
    21    23    15    1
    22     1     2   ar
    23     1     3   ar
    24     1    10    1
    25     2     5    1
    26     3     9    1
    27    15    16   ar
    28    10    11    3
    29    21    26    1
    30    21    18   ar
    31    11    12    1
    32    26    27    1
    33    16    18   ar
    34    16    19    1
    35    18    30    1
    36    38    37    1
    37    35    33    1
    38    37    36    3
    39    30    33   ar
    40    30    28   ar
    41    36    28    1
    42    33    34   ar
    43    28    29   ar
    44    34    39    1
    45    34    31   ar
    46    39    40    1
    47    29    31   ar
    48    29    32    1
    49    31    43    1
    50    43    41   ar
    51    44    49    1
    52    44    42   ar
    53    41    42   ar
    54    41    50    1
    55    42    45    1
    56    50    51    3
    57    51    52    1
