@<TRIPOS>MOLECULE
mol_data/noopt/geoms/mol2/4eh13hi(140)6il(70)4li(300).out
 62 65 0 0 0
SMALL
GASTEIGER

@<TRIPOS>ATOM
      1 C           0.0509    0.0309    0.0002 C.ar    1  LIG1        0.0254
      2 C           1.4592    0.0309    0.0002 C.ar    1  LIG1       -0.0354
      3 C          -0.6045    1.2792    0.0002 C.ar    1  LIG1       -0.0446
      4 C           2.1849    1.2200   -0.0004 C.ar    1  LIG1        0.0219
      5 H           1.9850   -0.9213    0.0004 H       1  LIG1        0.0637
      6 C           0.1195    2.4666   -0.0004 C.ar    1  LIG1       -0.0393
      7 C           1.5181    2.4458   -0.0008 C.ar    1  LIG1        0.0339
      8 H          -0.4090    3.4165   -0.0003 H       1  LIG1        0.0636
      9 H          -1.9035    1.3287    0.0016 H       1  LIG1        0.0630
     10 C          -0.5708   -1.1108    0.0005 C.1     1  LIG1       -0.0696
     11 C          -1.1453   -2.1657    0.0008 C.1     1  LIG1       -0.1139
     12 H          -1.6571   -3.1054    0.0010 H       1  LIG1        0.1232
     13 N           2.1896    3.5590   -0.0012 N.pl3   1  LIG1       -0.3575
     14 H           3.0608    3.4225   -0.4727 H       1  LIG1        0.1423
     15 H           1.6626    4.2660   -0.4727 H       1  LIG1        0.1423
     16 C           3.4844    1.1831   -0.0005 C.ar    1  LIG1        0.0699
     17 C           4.3893    1.9763    0.6320 C.ar    1  LIG1        0.0538
     18 C           5.6936    1.4957    0.2878 C.ar    1  LIG1       -0.0039
     19 C           5.5283    0.4289   -0.5384 C.ar    1  LIG1        0.0535
     20 N           4.1774    0.2343   -0.7180 N.ar    1  LIG1       -0.3524
     21 H           3.7674   -0.4784   -1.2764 H       1  LIG1        0.1660
     22 N           4.1169    2.9854    1.4049 N.pl3   1  LIG1       -0.3561
     23 H           4.7623    3.7275    1.2241 H       1  LIG1        0.1424
     24 H           3.1857    3.3020    1.2240 H       1  LIG1        0.1424
     25 C           6.8288    1.9861    0.6898 C.3     1  LIG1       -0.0359
     26 H           6.6505    2.8608    1.2798 H       1  LIG1        0.0279
     27 H           7.4264    2.2445   -0.1594 H       1  LIG1        0.0279
     28 H           7.3435    1.2568    1.2797 H       1  LIG1        0.0279
     29 C           6.7826   -0.1136   -2.4492 C.ar    1  LIG1        0.0482
     30 C           6.4075   -0.3380   -1.1119 C.ar    1  LIG1        0.0231
     31 C           6.9999   -1.3975   -0.4222 C.ar    1  LIG1       -0.0070
     32 C           7.9383   -2.1901   -1.0855 C.ar    1  LIG1        0.1467
     33 C           8.2476   -1.8864   -2.4240 C.ar    1  LIG1        0.1163
     34 N           7.6859   -0.8682   -3.1044 N.ar    1  LIG1       -0.2474
     35 H           6.7313   -1.6042    0.6234 H       1  LIG1        0.0662
     36 C           6.2588    0.8606   -3.1330 C.3     1  LIG1       -0.0217
     37 H           5.2201    0.9478   -2.8914 H       1  LIG1        0.0293
     38 H           6.3663    0.6606   -4.1786 H       1  LIG1        0.0293
     39 H           6.7592    1.7751   -2.8915 H       1  LIG1        0.0293
     40 O           8.5178   -3.1883   -0.4872 O.3     1  LIG1       -0.4929
     41 C           7.5648   -4.2316   -0.2677 C.3     1  LIG1        0.0789
     42 H           8.0422   -5.0530    0.2246 H       1  LIG1        0.0660
     43 H           6.7677   -3.8636    0.3441 H       1  LIG1        0.0660
     44 H           7.1713   -4.5588   -1.2073 H       1  LIG1        0.0660
     45 C           8.7804   -3.1120   -4.3522 C.ar    1  LIG1        0.1294
     46 C           9.7540   -3.8747   -5.0258 C.ar    1  LIG1       -0.0190
     47 C           9.1149   -2.5952   -3.0838 C.ar    1  LIG1        0.0458
     48 C          11.0061   -4.1129   -4.4636 C.ar    1  LIG1       -0.0553
     49 H           9.5167   -4.2832   -6.0056 H       1  LIG1        0.0654
     50 C          10.3648   -2.8327   -2.5221 C.ar    1  LIG1       -0.0460
     51 C          11.3187   -3.5925   -3.2072 C.ar    1  LIG1       -0.0496
     52 H          10.5987   -2.4233   -1.5427 H       1  LIG1        0.0628
     53 H          11.8812   -4.8214   -5.1135 H       1  LIG1        0.0621
     54 O           7.6302   -2.9237   -4.9280 O.3     1  LIG1       -0.4945
     55 C           7.4257   -1.5243   -5.1394 C.3     1  LIG1        0.0788
     56 H           6.4790   -1.3697   -5.6135 H       1  LIG1        0.0660
     57 H           7.4406   -1.0154   -4.1982 H       1  LIG1        0.0660
     58 H           8.2045   -1.1405   -5.7647 H       1  LIG1        0.0660
     59 C          12.4856   -3.8114   -2.6769 C.3     1  LIG1       -0.0397
     60 H          12.7646   -2.9749   -2.0709 H       1  LIG1        0.0278
     61 H          13.2100   -3.9473   -3.4526 H       1  LIG1        0.0278
     62 H          12.4424   -4.6922   -2.0710 H       1  LIG1        0.0278
@<TRIPOS>BOND
     1    49    46    1
     2    58    55    1
     3    56    55    1
     4    55    54    1
     5    55    57    1
     6    53    48    1
     7    46    48   ar
     8    46    45   ar
     9    54    45    1
    10    48    51   ar
    11    45    47   ar
    12    38    36    1
    13    61    59    1
    14    51    59    1
    15    51    50   ar
    16    36    39    1
    17    36    37    1
    18    36    29    1
    19    34    29   ar
    20    34    33   ar
    21    47    50   ar
    22    47    33    1
    23    59    62    1
    24    59    60    1
    25    50    52    1
    26    29    30   ar
    27    33    32   ar
    28    21    20    1
    29    44    41    1
    30    30    19    1
    31    30    31   ar
    32    32    40    1
    33    32    31   ar
    34    20    19   ar
    35    20    16   ar
    36    19    18   ar
    37    40    41    1
    38    15    13    1
    39    14    13    1
    40    31    35    1
    41    41    42    1
    42    41    43    1
    43    27    25    1
    44    13     7    1
    45     7     4   ar
    46     7     6   ar
    47    16     4    1
    48    16    17   ar
    49     4     2   ar
    50     6     8    1
    51     6     3   ar
    52     3     1   ar
    53     3     9    1
    54     2     1   ar
    55     2     5    1
    56     1    10    1
    57    10    11    3
    58    11    12    1
    59    18    17   ar
    60    18    25    1
    61    17    22    1
    62    25    28    1
    63    25    26    1
    64    24    22    1
    65    23    22    1
