@<TRIPOS>MOLECULE
mol_data/noopt/geoms/mol2/4eh4dh(10)13af(100)6ei(150).out
 52 55 0 0 0
SMALL
GASTEIGER

@<TRIPOS>ATOM
      1 C           0.0509    0.0309    0.0002 C.ar    1  LIG1        0.0254
      2 C           1.4592    0.0309    0.0002 C.ar    1  LIG1       -0.0368
      3 C          -0.6045    1.2792    0.0002 C.ar    1  LIG1       -0.0446
      4 C           2.1849    1.2200   -0.0004 C.ar    1  LIG1        0.0052
      5 H           1.9850   -0.9213    0.0004 H       1  LIG1        0.0636
      6 C           0.1195    2.4666   -0.0004 C.ar    1  LIG1       -0.0393
      7 C           1.5181    2.4458   -0.0008 C.ar    1  LIG1        0.0325
      8 H          -0.4090    3.4165   -0.0003 H       1  LIG1        0.0636
      9 H          -1.9035    1.3287    0.0016 H       1  LIG1        0.0630
     10 C          -0.5708   -1.1108    0.0005 C.1     1  LIG1       -0.0696
     11 C          -1.1453   -2.1657    0.0008 C.1     1  LIG1       -0.1139
     12 H          -1.6571   -3.1054    0.0010 H       1  LIG1        0.1232
     13 N           2.1896    3.5590   -0.0012 N.pl3   1  LIG1       -0.3575
     14 H           3.0608    3.4225   -0.4727 H       1  LIG1        0.1423
     15 H           1.6626    4.2660   -0.4727 H       1  LIG1        0.1423
     16 C           4.1523   -0.0401    0.2125 C.ar    1  LIG1        0.0602
     17 C           5.5606   -0.0270    0.2045 C.ar    1  LIG1       -0.0329
     18 C           3.4843    1.1831   -0.0005 C.ar    1  LIG1        0.0030
     19 C           6.2742    1.1507   -0.0065 C.ar    1  LIG1        0.0203
     20 H           6.0960   -0.9598    0.3670 H       1  LIG1        0.0638
     21 C           4.1962    2.3591   -0.2112 C.ar    1  LIG1       -0.0314
     22 C           5.5950    2.3515   -0.2159 C.ar    1  LIG1        0.0344
     23 H           3.6581    3.2896   -0.3730 H       1  LIG1        0.0643
     24 N           3.0041   -2.1668    0.5925 N.1     1  LIG1       -0.1908
     25 C           3.5422   -1.1701    0.4144 C.1     1  LIG1        0.0998
     26 N           6.2551    3.4539   -0.4133 N.pl3   1  LIG1       -0.3574
     27 H           7.0881    3.2557   -0.9298 H       1  LIG1        0.1423
     28 H           5.6871    4.0946   -0.9298 H       1  LIG1        0.1423
     29 C           7.5739    1.1264   -0.0075 C.ar    1  LIG1        0.0523
     30 C           8.4601    1.3041    1.0079 C.ar    1  LIG1        0.0059
     31 C           9.7750    1.1753    0.4554 C.ar    1  LIG1        0.1427
     32 C           9.6344    0.9228   -0.8730 C.ar    1  LIG1        0.0916
     33 N           8.2885    0.8925   -1.1607 N.ar    1  LIG1       -0.3511
     34 H           7.8951    0.7273   -2.0585 H       1  LIG1        0.1660
     35 H           8.1646    1.5476    2.2502 H       1  LIG1        0.0675
     36 O          10.8982    1.2794    1.1017 O.3     1  LIG1       -0.5046
     37 H          11.0915    2.2062    1.2610 H       1  LIG1        0.2922
     38 C          10.3800   -0.3127   -2.7266 C.ar    1  LIG1        0.1223
     39 C          10.5309    0.7303   -1.7945 C.ar    1  LIG1        0.0359
     40 C          11.6596    1.5469   -1.8848 C.ar    1  LIG1       -0.0455
     41 C          12.5913    1.2965   -2.8936 C.ar    1  LIG1       -0.0316
     42 C          12.3523    0.2291   -3.7785 C.ar    1  LIG1        0.0319
     43 N          11.2688   -0.5685   -3.7060 N.ar    1  LIG1       -0.2458
     44 H          11.8121    2.3711   -1.1736 H       1  LIG1        0.0628
     45 H          13.1905   -0.0436   -4.7340 H       1  LIG1        0.0832
     46 C           9.3461   -1.0996   -2.6833 C.1     1  LIG1       -0.0491
     47 C           8.3908   -1.8267   -2.6434 C.1     1  LIG1       -0.1124
     48 H           7.5398   -2.4744   -2.6078 H       1  LIG1        0.1232
     49 C          13.6587    2.0283   -3.0196 C.3     1  LIG1       -0.0383
     50 H          13.4979    2.9772   -2.5521 H       1  LIG1        0.0278
     51 H          13.8709    2.1738   -4.0582 H       1  LIG1        0.0278
     52 H          14.4858    1.5360   -2.5521 H       1  LIG1        0.0278
@<TRIPOS>BOND
     1    45    42    1
     2    51    49    1
     3    42    43   ar
     4    42    41   ar
     5    43    38   ar
     6    49    41    1
     7    49    52    1
     8    49    50    1
     9    41    40   ar
    10    38    46    1
    11    38    39   ar
    12    46    47    3
    13    47    48    1
    14    34    33    1
    15    40    39   ar
    16    40    44    1
    17    39    32    1
    18    33    32   ar
    19    33    29   ar
    20    28    26    1
    21    27    26    1
    22    32    31   ar
    23    15    13    1
    24    14    13    1
    25    26    22    1
    26    23    21    1
    27    22    21   ar
    28    22    19   ar
    29    21    18   ar
    30    29    19    1
    31    29    30   ar
    32    19    17   ar
    33    13     7    1
    34     7     4   ar
    35     7     6   ar
    36    18     4    1
    37    18    16   ar
    38     4     2   ar
    39     6     8    1
    40     6     3   ar
    41     1     3   ar
    42     1     2   ar
    43     1    10    1
    44     3     9    1
    45     2     5    1
    46    10    11    3
    47    11    12    1
    48    17    16   ar
    49    17    20    1
    50    16    25    1
    51    25    24    3
    52    31    30   ar
    53    31    36    1
    54    30    35    1
    55    36    37    1
