@<TRIPOS>MOLECULE
mol_data/noopt/geoms/mol2/4eh4fi-13he13ii.out
 56 59 0 0 0
SMALL
GASTEIGER

@<TRIPOS>ATOM
      1 C           0.0509    0.0309    0.0002 C.ar    1  LIG1        0.0254
      2 C           1.4592    0.0309    0.0002 C.ar    1  LIG1       -0.0367
      3 C          -0.6045    1.2792    0.0002 C.ar    1  LIG1       -0.0446
      4 C           2.1849    1.2200   -0.0004 C.ar    1  LIG1        0.0074
      5 H           1.9850   -0.9213    0.0004 H       1  LIG1        0.0636
      6 C           0.1195    2.4666   -0.0004 C.ar    1  LIG1       -0.0393
      7 C           1.5181    2.4458   -0.0008 C.ar    1  LIG1        0.0325
      8 H          -0.4090    3.4165   -0.0003 H       1  LIG1        0.0636
      9 H          -1.9035    1.3287    0.0016 H       1  LIG1        0.0630
     10 C          -0.5708   -1.1108    0.0005 C.1     1  LIG1       -0.0696
     11 C          -1.1453   -2.1657    0.0008 C.1     1  LIG1       -0.1139
     12 H          -1.6571   -3.1054    0.0010 H       1  LIG1        0.1232
     13 N           2.1896    3.5590   -0.0012 N.pl3   1  LIG1       -0.3575
     14 H           3.0608    3.4225   -0.4727 H       1  LIG1        0.1423
     15 H           1.6626    4.2660   -0.4727 H       1  LIG1        0.1423
     16 C           4.1518   -0.0586    0.0215 C.ar    1  LIG1        0.1252
     17 C           5.5600   -0.0449    0.0220 C.ar    1  LIG1       -0.0102
     18 C           3.4843    1.1831   -0.0005 C.ar    1  LIG1        0.0256
     19 C           6.2742    1.1510    0.0009 C.ar    1  LIG1        0.0065
     20 H           6.0951   -0.9918    0.0390 H       1  LIG1        0.0661
     21 C           4.1968    2.3773   -0.0216 C.ar    1  LIG1       -0.0469
     22 C           5.5955    2.3701   -0.0212 C.ar    1  LIG1       -0.0405
     23 H           3.6591    3.3219   -0.0383 H       1  LIG1        0.0628
     24 O           3.5411   -1.2061    0.0416 O.3     1  LIG1       -0.5061
     25 H           4.1895   -1.9141    0.0465 H       1  LIG1        0.2922
     26 C           6.2563    3.4898   -0.0408 C.3     1  LIG1       -0.0391
     27 H           5.6890    4.2475    0.4582 H       1  LIG1        0.0278
     28 H           6.4298    3.7839   -1.0549 H       1  LIG1        0.0278
     29 H           7.1938    3.3594    0.4581 H       1  LIG1        0.0278
     30 C           7.5739    1.1267    0.0018 C.ar    1  LIG1        0.0695
     31 C           8.4364    0.0760    0.0022 C.ar    1  LIG1        0.0664
     32 C           9.7641    0.6125    0.0045 C.ar    1  LIG1        0.0726
     33 C           9.6546    1.9675    0.0037 C.ar    1  LIG1        0.0810
     34 N           8.3154    2.2866    0.0026 N.ar    1  LIG1       -0.3505
     35 H           7.9430    3.2082    0.0017 H       1  LIG1        0.1660
     36 N           8.1119   -1.1829    0.0020 N.pl3   1  LIG1       -0.3554
     37 H           7.2380   -1.3017   -0.4694 H       1  LIG1        0.1424
     38 H           8.8193   -1.7094   -0.4695 H       1  LIG1        0.1424
     39 C          10.8721   -0.0675    0.0064 C.1     1  LIG1       -0.0656
     40 C          11.8959   -0.6957    0.0083 C.1     1  LIG1       -0.1138
     41 H          12.8079   -1.2554    0.0099 H       1  LIG1        0.1232
     42 C          10.5726    2.8880    0.0049 C.ar    1  LIG1        0.0674
     43 C          11.9277    2.7821    0.0220 C.ar    1  LIG1       -0.0208
     44 C          12.4607    4.1112    0.0155 C.ar    1  LIG1       -0.0296
     45 C          11.4078    4.9709   -0.0070 C.ar    1  LIG1        0.0054
     46 N          10.2500    4.2262   -0.0131 N.ar    1  LIG1       -0.3590
     47 H           9.3274    4.5960   -0.0287 H       1  LIG1        0.1654
     48 H          11.3801    6.2705   -0.0206 H       1  LIG1        0.0810
     49 C          12.6107    1.6758    0.0421 C.3     1  LIG1       -0.0374
     50 H          13.5374    1.8379    0.5520 H       1  LIG1        0.0278
     51 H          12.8063    1.3591   -0.9611 H       1  LIG1        0.0278
     52 H          12.0505    0.9200    0.5519 H       1  LIG1        0.0278
     53 C          13.7189    4.4393    0.0283 C.3     1  LIG1       -0.0380
     54 H          13.8387    5.3734    0.5362 H       1  LIG1        0.0278
     55 H          14.0736    4.5319   -0.9770 H       1  LIG1        0.0278
     56 H          14.2796    3.6826    0.5362 H       1  LIG1        0.0278
@<TRIPOS>BOND
     1    28    26    1
     2    55    53    1
     3    51    49    1
     4    15    13    1
     5    14    13    1
     6    38    36    1
     7    37    36    1
     8    26    22    1
     9    26    29    1
    10    26    27    1
    11    23    21    1
    12    47    46    1
    13    21    22   ar
    14    21    18   ar
    15    22    19   ar
    16    48    45    1
    17    46    45   ar
    18    46    42   ar
    19    45    44   ar
    20    13     7    1
    21     7     4   ar
    22     7     6   ar
    23    18     4    1
    24    18    16   ar
    25     4     2   ar
    26     6     8    1
    27     6     3   ar
    28     2     1   ar
    29     2     5    1
    30     3     1   ar
    31     3     9    1
    32     1    10    1
    33    10    11    3
    34    11    12    1
    35    19    30    1
    36    19    17   ar
    37    35    34    1
    38    30    31   ar
    39    30    34   ar
    40    36    31    1
    41    31    32   ar
    42    34    33   ar
    43    33    32   ar
    44    33    42    1
    45    32    39    1
    46    42    43   ar
    47    39    40    3
    48    40    41    1
    49    44    43   ar
    50    44    53    1
    51    16    17   ar
    52    16    24    1
    53    43    49    1
    54    17    20    1
    55    53    56    1
    56    53    54    1
    57    24    25    1
    58    49    52    1
    59    49    50    1
