@<TRIPOS>MOLECULE
mol_data/noopt/geoms/mol2/4eh6lf-6al6df.out
 54 56 0 0 0
SMALL
GASTEIGER

@<TRIPOS>ATOM
      1 C           0.0509    0.0309    0.0002 C.ar    1  LIG1        0.0254
      2 C           1.4592    0.0309    0.0002 C.ar    1  LIG1       -0.0366
      3 C          -0.6045    1.2792    0.0002 C.ar    1  LIG1       -0.0445
      4 C           2.1849    1.2200   -0.0004 C.ar    1  LIG1        0.0108
      5 H           1.9850   -0.9213    0.0004 H       1  LIG1        0.0636
      6 C           0.1195    2.4666   -0.0004 C.ar    1  LIG1       -0.0376
      7 C           1.5181    2.4458   -0.0008 C.ar    1  LIG1        0.0523
      8 H          -0.4090    3.4165   -0.0003 H       1  LIG1        0.0637
      9 H          -1.9035    1.3287    0.0016 H       1  LIG1        0.0630
     10 C          -0.5708   -1.1108    0.0005 C.1     1  LIG1       -0.0696
     11 C          -1.1453   -2.1657    0.0008 C.1     1  LIG1       -0.1139
     12 H          -1.6571   -3.1054    0.0010 H       1  LIG1        0.1232
     13 N           2.1896    3.5590   -0.0012 N.pl3   1  LIG1       -0.2660
     14 H           3.0608    3.4225   -0.4727 H       1  LIG1        0.2937
     15 H           1.6626    4.2660   -0.4727 H       1  LIG1        0.1699
     16 C           4.2297    2.3762   -0.0216 C.ar    1  LIG1        0.2211
     17 C           3.4844    1.1831   -0.0005 C.ar    1  LIG1        0.0488
     18 C           4.1715   -0.0320    0.0205 C.ar    1  LIG1       -0.0052
     19 C           5.5674   -0.0147    0.0195 C.ar    1  LIG1        0.1436
     20 C           6.2235    1.2297   -0.0026 C.ar    1  LIG1        0.1176
     21 N           5.5764    2.4113   -0.0228 N.ar    1  LIG1       -0.2088
     22 H           3.6233   -0.9846    0.0362 H       1  LIG1        0.0662
     23 O           3.6351    3.5321   -0.0414 O.3     1  LIG1       -0.4920
     24 C           4.6156    4.5731   -0.0488 C.3     2  LIG2       -0.0681
     25 H           4.1258    5.5243   -0.0653 H       1  LIG1        0.0227
     26 H           5.2211    4.4989    0.8303 H       1  LIG1        0.0227
     27 H           5.2335    4.4750   -0.9168 H       1  LIG1        0.0227
     28 O           6.2532   -1.1190    0.0383 O.3     1  LIG1       -0.5046
     29 H           7.1910   -0.9137    0.0429 H       1  LIG1        0.2922
     30 C           8.1685    2.5470   -0.0052 C.ar    1  LIG1        0.0378
     31 C           7.5217    1.2976   -0.0044 C.ar    1  LIG1        0.0256
     32 C           8.3045    0.1416   -0.0052 C.ar    1  LIG1       -0.0071
     33 C           9.6944    0.2713   -0.0069 C.ar    1  LIG1        0.1467
     34 C          10.2482    1.5647   -0.0078 C.ar    1  LIG1        0.1153
     35 N           9.5080    2.6905   -0.0068 N.ar    1  LIG1       -0.2506
     36 H           7.8348   -0.8522   -0.0056 H       1  LIG1        0.0662
     37 H           7.4828    3.6515   -0.0044 H       1  LIG1        0.0836
     38 O          10.4669   -0.7743   -0.0079 O.3     1  LIG1       -0.4929
     39 C           9.6664   -1.9592   -0.0083 C.3     1  LIG1        0.0789
     40 H          10.3026   -2.8196   -0.0093 H       1  LIG1        0.0660
     41 H           9.0492   -1.9730    0.8657 H       1  LIG1        0.0660
     42 H           9.0483   -1.9718   -0.8816 H       1  LIG1        0.0660
     43 C          12.0808    3.0344   -0.0100 C.ar    1  LIG1        0.1495
     44 C          11.5367    1.7369   -0.0093 C.ar    1  LIG1        0.0432
     45 C          12.4101    0.6478   -0.0100 C.ar    1  LIG1       -0.0066
     46 C          13.7850    0.8890   -0.0115 C.ar    1  LIG1        0.1356
     47 C          14.2328    2.2227   -0.0123 C.ar    1  LIG1        0.0705
     48 N          13.4043    3.2853   -0.0114 N.ar    1  LIG1       -0.2403
     49 H          12.0219   -0.3806   -0.0105 H       1  LIG1        0.0662
     50 H          15.5033    2.4982   -0.0136 H       1  LIG1        0.0867
     51 N          10.6270    5.0022   -0.0087 N.1     1  LIG1       -0.1893
     52 C          11.3083    4.0800   -0.0093 C.1     1  LIG1        0.1198
     53 O          14.6393   -0.0910   -0.0124 O.3     1  LIG1       -0.5052
     54 H          15.5320    0.2621   -0.0126 H       1  LIG1        0.2922
@<TRIPOS>BOND
     1    27    24    1
     2    42    39    1
     3    15    13    1
     4    14    23    1
     5    25    24    1
     6    24    26    1
     7    23    16    1
     8    21    16   ar
     9    21    20   ar
    10    16    17   ar
    11    50    47    1
    12    54    53    1
    13    53    46    1
    14    47    46   ar
    15    47    48   ar
    16    46    45   ar
    17    48    43   ar
    18    49    45    1
    19    45    44   ar
    20    43    44   ar
    21    43    52    1
    22    44    34    1
    23    40    39    1
    24    52    51    3
    25    39    38    1
    26    39    41    1
    27    38    33    1
    28    34    33   ar
    29    34    35   ar
    30    33    32   ar
    31    35    30   ar
    32    36    32    1
    33    32    31   ar
    34    30    31   ar
    35    30    37    1
    36    31    20    1
    37    20    19   ar
    38    13     7    1
    39     7     4   ar
    40     7     6   ar
    41    17     4    1
    42    17    18   ar
    43     4     2   ar
    44     6     8    1
    45     6     3   ar
    46     1     3   ar
    47     1     2   ar
    48     1    10    1
    49     3     9    1
    50     2     5    1
    51    10    11    3
    52    11    12    1
    53    19    18   ar
    54    19    28    1
    55    18    22    1
    56    28    29    1
