@<TRIPOS>MOLECULE
mol_data/noopt/geoms/mol2/4eh6ei-4ee4ea.out
 56 60 0 0 0
SMALL
GASTEIGER

@<TRIPOS>ATOM
      1 C           0.0509    0.0309    0.0002 C.ar    1  LIG1        0.0254
      2 C           1.4592    0.0309    0.0002 C.ar    1  LIG1       -0.0368
      3 C          -0.6045    1.2792    0.0002 C.ar    1  LIG1       -0.0446
      4 C           2.1849    1.2200   -0.0004 C.ar    1  LIG1        0.0058
      5 H           1.9850   -0.9213    0.0004 H       1  LIG1        0.0636
      6 C           0.1195    2.4666   -0.0004 C.ar    1  LIG1       -0.0391
      7 C           1.5181    2.4458   -0.0008 C.ar    1  LIG1        0.0353
      8 H          -0.4090    3.4165   -0.0003 H       1  LIG1        0.0636
      9 H          -1.9035    1.3287    0.0016 H       1  LIG1        0.0630
     10 C          -0.5708   -1.1108    0.0005 C.1     1  LIG1       -0.0696
     11 C          -1.1453   -2.1657    0.0008 C.1     1  LIG1       -0.1139
     12 H          -1.6571   -3.1054    0.0010 H       1  LIG1        0.1232
     13 N           2.1896    3.5590   -0.0012 N.pl3   1  LIG1       -0.3381
     14 H           3.0608    3.4225   -0.4727 H       1  LIG1        0.0390
     15 H           1.6626    4.2660   -0.4727 H       1  LIG1        0.1465
     16 C           4.2297    2.3762   -0.0216 C.ar    1  LIG1        0.0553
     17 C           3.4844    1.1831   -0.0005 C.ar    1  LIG1        0.0059
     18 C           4.1715   -0.0320    0.0205 C.ar    1  LIG1       -0.0470
     19 C           5.5674   -0.0147    0.0195 C.ar    1  LIG1       -0.0205
     20 C           6.2235    1.2297   -0.0026 C.ar    1  LIG1        0.0748
     21 N           5.5764    2.4113   -0.0228 N.ar    1  LIG1       -0.2504
     22 H           3.6233   -0.9846    0.0362 H       1  LIG1        0.0628
     23 C           3.6351    3.5321   -0.0414 C.3     1  LIG1        0.0320
     24 C           3.0858    4.6002   -0.0598 C.3     1  LIG1        0.0484
     25 H           2.5965    5.5516   -0.0761 H       1  LIG1        0.0522
     26 C           6.2533   -1.1192    0.0383 C.3     1  LIG1       -0.0216
     27 H           7.1798   -0.9550    0.5478 H       1  LIG1        0.0358
     28 H           6.4492   -1.4345   -0.9653 H       1  LIG1        0.0317
     29 H           5.6954   -1.8769    0.5478 H       1  LIG1        0.0317
     30 C           8.2870    0.1135   -0.0046 C.ar    1  LIG1       -0.0336
     31 C           9.6896    0.2405   -0.0049 C.ar    1  LIG1       -0.0487
     32 C           7.5217    1.2976   -0.0044 C.ar    1  LIG1        0.0053
     33 C          10.3050    1.4903   -0.0057 C.ar    1  LIG1       -0.0010
     34 H          10.2991   -0.6604   -0.0048 H       1  LIG1        0.0627
     35 C           8.1356    2.5455   -0.0051 C.ar    1  LIG1       -0.0363
     36 C           9.5304    2.6509   -0.0059 C.ar    1  LIG1        0.0330
     37 H           7.5236    3.4438   -0.0049 H       1  LIG1        0.0637
     38 C           7.7708   -1.0796   -0.0041 C.3     1  LIG1       -0.0047
     39 C           7.2938   -2.1820   -0.0037 C.3     1  LIG1       -0.0263
     40 H           6.8689   -3.1641   -0.0033 H       1  LIG1        0.0313
     41 C          10.0987    3.8201   -0.0065 C.1     1  LIG1       -0.0690
     42 C          10.6238    4.9004   -0.0070 C.1     1  LIG1       -0.1139
     43 H          11.0916    5.8628   -0.0074 H       1  LIG1        0.1232
     44 C          12.3793    0.3941   -0.0056 C.ar    1  LIG1        0.0324
     45 C          13.7805    0.5347   -0.0045 C.ar    1  LIG1       -0.0457
     46 C          11.6025    1.5707   -0.0061 C.ar    1  LIG1       -0.0013
     47 C          14.3839    1.7904   -0.0046 C.ar    1  LIG1       -0.0606
     48 H          14.3988   -0.3602   -0.0039 H       1  LIG1        0.0630
     49 C          12.2043    2.8245   -0.0062 C.ar    1  LIG1       -0.0528
     50 C          13.5980    2.9435   -0.0055 C.ar    1  LIG1       -0.0611
     51 H          11.5836    3.7169   -0.0065 H       1  LIG1        0.0624
     52 H          15.6805    1.8834   -0.0037 H       1  LIG1        0.0618
     53 C          11.8746   -0.8040   -0.0057 C.1     1  LIG1       -0.0691
     54 C          11.4084   -1.9110   -0.0058 C.1     1  LIG1       -0.1139
     55 H          10.9930   -2.8971   -0.0059 H       1  LIG1        0.1232
     56 H          14.1549    4.1181   -0.0055 H       1  LIG1        0.0618
@<TRIPOS>BOND
     1    28    26    1
     2    15    13    1
     3    14    23    1
     4    25    24    1
     5    24    23    1
     6    24    13    1
     7    23    16    1
     8    21    16   ar
     9    21    20   ar
    10    16    17   ar
    11    43    42    1
    12    42    41    3
    13    51    49    1
    14    41    36    1
    15    49    46   ar
    16    49    50   ar
    17    46    33    1
    18    46    44   ar
    19    55    54    1
    20    36    33   ar
    21    36    35   ar
    22    54    53    3
    23    53    44    1
    24    33    31   ar
    25    44    45   ar
    26    50    56    1
    27    50    47   ar
    28    35    37    1
    29    35    32   ar
    30    31    34    1
    31    31    30   ar
    32    47    45   ar
    33    47    52    1
    34    30    32   ar
    35    30    38    1
    36    45    48    1
    37    32    20    1
    38    38    39    1
    39    38    27    1
    40    39    40    1
    41    20    19   ar
    42    13     7    1
    43     7     6   ar
    44     7     4   ar
    45    17     4    1
    46    17    18   ar
    47     6     8    1
    48     6     3   ar
    49     4     2   ar
    50     1     3   ar
    51     1     2   ar
    52     1    10    1
    53     3     9    1
    54     2     5    1
    55    10    11    3
    56    11    12    1
    57    19    18   ar
    58    19    26    1
    59    18    22    1
    60    26    29    1
