@<TRIPOS>MOLECULE
mol_data/noopt/geoms/mol2/4ei12fh13ee12hi.out
 51 54 0 0 0
SMALL
GASTEIGER

@<TRIPOS>ATOM
      1 C           0.0509    0.0309    0.0002 C.ar    1  LIG1        0.0254
      2 C           1.4592    0.0309    0.0002 C.ar    1  LIG1       -0.0353
      3 C          -0.6045    1.2792    0.0002 C.ar    1  LIG1       -0.0460
      4 C           2.1849    1.2200   -0.0004 C.ar    1  LIG1        0.0251
      5 H           1.9850   -0.9213    0.0004 H       1  LIG1        0.0637
      6 C           0.1195    2.4666   -0.0004 C.ar    1  LIG1       -0.0570
      7 C           1.5181    2.4458   -0.0008 C.ar    1  LIG1       -0.0396
      8 H          -0.4090    3.4165   -0.0003 H       1  LIG1        0.0621
      9 H          -1.9035    1.3287    0.0016 H       1  LIG1        0.0630
     10 C          -0.5708   -1.1108    0.0005 C.1     1  LIG1       -0.0696
     11 C          -1.1453   -2.1657    0.0008 C.1     1  LIG1       -0.1139
     12 H          -1.6571   -3.1054    0.0010 H       1  LIG1        0.1232
     13 C           2.1897    3.5592   -0.0012 C.3     1  LIG1       -0.0390
     14 H           1.6260    4.3160    0.5031 H       1  LIG1        0.0278
     15 H           2.3738    3.8644   -1.0102 H       1  LIG1        0.0278
     16 H           3.1221    3.4135    0.5030 H       1  LIG1        0.0278
     17 C           3.4844    1.1831   -0.0005 C.ar    1  LIG1        0.1791
     18 C           4.4399    0.1881   -0.0006 C.ar    1  LIG1        0.1845
     19 C           5.7279    0.8499   -0.0007 C.ar    1  LIG1        0.1153
     20 C           5.4738    2.2061   -0.0008 C.ar    1  LIG1        0.1772
     21 O           4.0977    2.4367   -0.0007 O.2     1  LIG1       -0.4476
     22 O           4.2495   -1.0979   -0.0005 O.3     1  LIG1       -0.5020
     23 H           5.0978   -1.5474   -0.0004 H       1  LIG1        0.2924
     24 N           6.8846    0.2566   -0.0008 N.pl3   1  LIG1       -0.3521
     25 H           6.8084   -0.6220   -0.4722 H       1  LIG1        0.1425
     26 H           7.5538    0.8309   -0.4722 H       1  LIG1        0.1425
     27 C           6.1999    3.2844   -0.0008 C.ar    1  LIG1        0.1014
     28 C           7.5504    3.4384    0.0154 C.ar    1  LIG1        0.0691
     29 C           7.8207    4.8446    0.0076 C.ar    1  LIG1        0.0691
     30 C           6.6235    5.4882   -0.0147 C.ar    1  LIG1        0.1012
     31 N           5.6285    4.5367   -0.0195 N.ar    1  LIG1       -0.3473
     32 H           4.6524    4.7243   -0.0347 H       1  LIG1        0.1662
     33 C           8.4313    2.4825    0.0358 C.1     1  LIG1       -0.0662
     34 C           9.2452    1.5993    0.0547 C.1     1  LIG1       -0.1138
     35 H           9.9702    0.8125    0.0715 H       1  LIG1        0.1232
     36 C           8.9932    5.4060    0.0193 C.1     1  LIG1       -0.0662
     37 C          10.0765    5.9248    0.0301 C.1     1  LIG1       -0.1138
     38 H          11.0415    6.3869    0.0397 H       1  LIG1        0.1232
     39 C           6.3489    6.7587   -0.0293 C.ar    1  LIG1        0.1729
     40 C           7.0868    7.9242   -0.0403 C.ar    1  LIG1        0.0754
     41 C           6.1365    9.0168   -0.0545 C.ar    1  LIG1        0.0086
     42 C           4.8803    8.4461   -0.0513 C.ar    1  LIG1        0.0974
     43 O           4.9851    7.0549   -0.0359 O.2     1  LIG1       -0.4592
     44 H           3.6598    8.8935   -0.0591 H       1  LIG1        0.1033
     45 N           8.3811    8.0466   -0.0384 N.pl3   1  LIG1       -0.3548
     46 H           8.7904    7.2651   -0.5094 H       1  LIG1        0.1424
     47 H           8.6367    8.8908   -0.5094 H       1  LIG1        0.1424
     48 C           6.4365   10.2819   -0.0676 C.3     1  LIG1       -0.0350
     49 H           5.6699   10.8355    0.4332 H       1  LIG1        0.0279
     50 H           6.5163   10.6191   -1.0800 H       1  LIG1        0.0279
     51 H           7.3700   10.4323    0.4332 H       1  LIG1        0.0279
@<TRIPOS>BOND
     1    50    48    1
     2    15    13    1
     3    47    45    1
     4    46    45    1
     5    26    24    1
     6    25    24    1
     7    48    41    1
     8    48    51    1
     9    48    49    1
    10    44    42    1
    11    41    42   ar
    12    41    40   ar
    13    42    43   ar
    14    40    45    1
    15    40    39   ar
    16    43    39   ar
    17    32    31    1
    18    39    30    1
    19    31    30   ar
    20    31    27   ar
    21    30    29   ar
    22    13     7    1
    23    13    16    1
    24    13    14    1
    25    27    20    1
    26    27    28   ar
    27     7     6   ar
    28     7     4   ar
    29    24    19    1
    30    20    21   ar
    31    20    19   ar
    32    21    17   ar
    33    19    18   ar
    34    18    17   ar
    35    18    22    1
    36    17     4    1
    37    22    23    1
    38     6     8    1
    39     6     3   ar
    40     4     2   ar
    41     1     2   ar
    42     1     3   ar
    43     1    10    1
    44     2     5    1
    45     3     9    1
    46    10    11    3
    47    11    12    1
    48    29    28   ar
    49    29    36    1
    50    28    33    1
    51    36    37    3
    52    37    38    1
    53    33    34    3
    54    34    35    1
