@<TRIPOS>MOLECULE
mol_data/noopt/geoms/mol2/4ei12lh4fh-13ia4ed-13le13dh-4fa.out
 103 107 0 0 0
SMALL
GASTEIGER

@<TRIPOS>ATOM
      1 C           0.0509    0.0309    0.0002 C.ar    1  LIG1        0.0331
      2 C           1.4592    0.0309    0.0002 C.ar    1  LIG1        0.0104
      3 C          -0.6045    1.2792    0.0002 C.ar    1  LIG1       -0.0455
      4 C           2.1849    1.2200   -0.0004 C.ar    1  LIG1        0.0330
      5 H           1.9850   -0.9213    0.0004 H       1  LIG1        0.0194
      6 C           0.1195    2.4666   -0.0004 C.ar    1  LIG1       -0.0570
      7 C           1.5181    2.4458   -0.0008 C.ar    1  LIG1       -0.0390
      8 H          -0.4090    3.4165   -0.0003 H       1  LIG1        0.0621
      9 H          -1.9035    1.3287    0.0016 H       1  LIG1        0.0630
     10 C          -0.5708   -1.1108    0.0005 C.1     1  LIG1       -0.0690
     11 C          -1.1453   -2.1657    0.0008 C.1     1  LIG1       -0.1139
     12 H          -1.6571   -3.1054    0.0010 H       1  LIG1        0.1232
     13 C           2.1897    3.5592   -0.0012 C.3     1  LIG1       -0.0390
     14 H           1.6260    4.3160    0.5031 H       1  LIG1        0.0278
     15 H           2.3738    3.8644   -1.0102 H       1  LIG1        0.0278
     16 H           3.1221    3.4135    0.5030 H       1  LIG1        0.0278
     17 C           3.4844    1.1831   -0.0005 C.ar    1  LIG1        0.1849
     18 C           4.4399    0.1881   -0.0006 C.ar    1  LIG1        0.2455
     19 C           5.7279    0.8499   -0.0007 C.ar    1  LIG1        0.1192
     20 C           5.4738    2.2061   -0.0008 C.ar    1  LIG1        0.1637
     21 O           4.0977    2.4367   -0.0007 O.2     1  LIG1       -0.4488
     22 O           4.2495   -1.0979   -0.0005 O.3     1  LIG1       -0.2819
     23 C           2.8461   -1.3726   -0.0005 C.3     2  LIG2       -0.0776
     24 H           2.6899   -2.4312   -0.0006 H       1  LIG1        0.0194
     25 H           2.3992   -0.9462    0.8732 H       1  LIG1        0.0194
     26 H           2.3992   -0.9461   -0.8741 H       1  LIG1        0.0194
     27 N           6.8846    0.2566   -0.0008 N.pl3   1  LIG1       -0.3520
     28 H           6.8084   -0.6220   -0.4722 H       1  LIG1        0.1425
     29 H           7.5538    0.8309   -0.4722 H       1  LIG1        0.1425
     30 C           7.6060    3.1845    0.0213 C.ar    1  LIG1        0.1283
     31 C           8.3475    4.3818    0.0218 C.ar    1  LIG1       -0.0086
     32 C           6.1998    3.2844   -0.0008 C.ar    1  LIG1        0.0624
     33 C           7.7187    5.6247    0.0007 C.ar    1  LIG1        0.0227
     34 H           9.4337    4.3276    0.0388 H       1  LIG1        0.0661
     35 C           5.5717    4.5250   -0.0219 C.ar    1  LIG1       -0.0262
     36 C           6.3257    5.7031   -0.0214 C.ar    1  LIG1        0.0347
     37 H           4.4859    4.5757   -0.0386 H       1  LIG1        0.0644
     38 O           8.2492    2.0549    0.0413 O.3     1  LIG1       -0.5060
     39 H           9.1941    2.2242    0.0462 H       1  LIG1        0.2922
     40 N           5.7330    6.8600   -0.0410 N.pl3   1  LIG1       -0.3574
     41 H           6.3109    7.5225   -0.5174 H       1  LIG1        0.1423
     42 H           4.8576    6.7780   -0.5174 H       1  LIG1        0.1423
     43 C           8.4343    6.7101    0.0017 C.ar    1  LIG1        0.0517
     44 C           9.7832    6.8771    0.0186 C.ar    1  LIG1       -0.0246
     45 C          10.0399    8.2859    0.0120 C.ar    1  LIG1       -0.0332
     46 C           8.8364    8.9179   -0.0105 C.ar    1  LIG1        0.0448
     47 N           7.8507    7.9568   -0.0164 N.ar    1  LIG1       -0.3541
     48 H           6.8729    8.1348   -0.0319 H       1  LIG1        0.1659
     49 C          10.6735    5.9296    0.0388 C.3     1  LIG1       -0.0377
     50 H          11.5491    6.2736    0.5487 H       1  LIG1        0.0278
     51 H          10.9285    5.6584   -0.9644 H       1  LIG1        0.0278
     52 H          10.2756    5.0772    0.5486 H       1  LIG1        0.0278
     53 H          11.2068    8.8587    0.0246 H       1  LIG1        0.0641
     54 C           9.5866   11.1407   -0.0097 C.3     1  LIG1        0.1028
     55 C           9.2237   12.5014   -0.0240 C.3     3  LIG3        0.0000
     56 C           8.5495   10.1857   -0.0243 C.2     1  LIG1       -0.0013
     57 C           7.8880   12.8960   -0.0523 C.2     1  LIG1        0.0272
     58 H          10.0080   13.2549   -0.0129 H       3  LIG3        0.0194
     59 C           7.2159   10.5790   -0.0526 C.2     1  LIG1       -0.0370
     60 C           6.8756   11.9357   -0.0669 C.2     1  LIG1        0.0618
     61 H           6.4345    9.8235   -0.0633 H       1  LIG1        0.0634
     62 C          10.8497   10.8344    0.0165 C.1     1  LIG1       -0.0902
     63 C          12.0168   10.5513    0.0406 C.1     1  LIG1       -0.1182
     64 H          13.0564   10.2992    0.0621 H       1  LIG1        0.1228
     65 N           4.5262   12.6165   -0.1163 N.1     1  LIG1       -0.1908
     66 C           5.6272   12.2974   -0.0931 C.1     1  LIG1        0.0998
     67 C           7.5888   14.1610   -0.0650 C.2     1  LIG1        0.0856
     68 C           8.3925   15.2573   -0.0740 C.2     1  LIG1        0.2135
     69 C           7.5431   16.4102   -0.0856 C.2     1  LIG1        0.0762
     70 C           6.2577   15.9677   -0.0849 C.3     1  LIG1        0.1408
     71 N           6.2811   14.5912   -0.0719 N.pl3   1  LIG1       -0.3231
     72 H           5.4808   14.0017   -0.0686 H       1  LIG1        0.1475
     73 O           9.6925   15.2556   -0.0710 O.2     1  LIG1       -0.2849
     74 C          10.1679   13.9069   -0.0700 C.3     4  LIG4       -0.0776
     75 H          11.2379   13.9059   -0.0676 H       3  LIG3        0.0194
     76 H           9.8089   13.4028    0.8030 H       3  LIG3        0.0194
     77 H           9.8127   13.4028   -0.9443 H       3  LIG3        0.0194
     78 C           7.9266   17.6523   -0.0954 C.1     1  LIG1       -0.0931
     79 C           8.2810   18.8000   -0.1045 C.2     1  LIG1        0.0549
     80 H           8.5967   19.8223   -0.1126 H       1  LIG1        0.0888
     81 C           5.1381   16.6283   -0.0932 C.ar    1  LIG1        0.0556
     82 C           4.9043   17.9674   -0.0992 C.ar    1  LIG1        0.0271
     83 C           3.4844   18.1536   -0.1062 C.ar    1  LIG1        0.0561
     84 C           2.9131   16.9201   -0.1060 C.ar    1  LIG1        0.0715
     85 N           3.9219   15.9833   -0.0976 N.ar    1  LIG1       -0.3540
     86 H           3.7927   14.9978   -0.0957 H       1  LIG1        0.1657
     87 N           6.6017   19.7294   -0.0954 N.pl3   1  LIG1       -0.2335
     88 C           5.8062   18.9037   -0.0972 C.3     1  LIG1        0.1409
     89 N           2.8544   19.2907   -0.1122 N.pl3   1  LIG1       -0.3561
     90 H           3.4081   19.9761   -0.5852 H       1  LIG1        0.1424
     91 H           1.9797   19.1847   -0.5852 H       1  LIG1        0.1424
     92 C           0.6557   17.5588   -0.1132 C.ar    1  LIG1        0.1260
     93 C          -0.6853   17.1285   -0.1173 C.ar    1  LIG1       -0.0195
     94 C           1.6611   16.5704   -0.1112 C.ar    1  LIG1        0.0415
     95 C          -1.0131   15.7746   -0.1199 C.ar    1  LIG1       -0.0583
     96 H          -1.4769   17.8746   -0.1188 H       1  LIG1        0.0654
     97 C           1.3344   15.2185   -0.1138 C.ar    1  LIG1       -0.0491
     98 C          -0.0037   14.8111   -0.1182 C.ar    1  LIG1       -0.0609
     99 H           2.1278   14.4755   -0.1120 H       1  LIG1        0.0625
    100 H          -2.2617   15.4128   -0.1238 H       1  LIG1        0.0619
    101 O           0.8989   18.8359   -0.1113 O.3     1  LIG1       -0.5061
    102 H           0.0699   19.3199   -0.1108 H       1  LIG1        0.2922
    103 H          -0.3030   13.5460   -0.1205 H       1  LIG1        0.0618
@<TRIPOS>BOND
     1    15    13    1
     2    51    49    1
     3    77    74    1
     4    26    23    1
     5    91    89    1
     6    90    89    1
     7    42    40    1
     8    41    40    1
     9    29    27    1
    10    28    27    1
    11   100    95    1
    12   103    98    1
    13    95    98   ar
    14    95    93   ar
    15    96    93    1
    16    98    97   ar
    17    93    92   ar
    18    65    66    3
    19    97    99    1
    20    97    94   ar
    21    92   101    1
    22    92    94   ar
    23    80    79    1
    24    89    83    1
    25   101   102    1
    26    94    84    1
    27    83    84   ar
    28    83    82   ar
    29    84    85   ar
    30    79    78    2
    31    79    87    1
    32    82    88    1
    33    82    81   ar
    34    85    86    1
    35    85    81   ar
    36    88    87    1
    37    78    69    2
    38    81    70    1
    39    66    60    1
    40    69    70    1
    41    69    68    1
    42    70    71    1
    43    68    73    1
    44    68    67    2
    45    71    72    1
    46    71    67    1
    47    74    75    1
    48    74    58    1
    49    74    76    1
    50    60    59    1
    51    60    57    2
    52    67    57    1
    53    61    59    1
    54    59    56    2
    55    40    36    1
    56    37    35    1
    57    48    47    1
    58    56    46    1
    59    56    54    1
    60    35    36   ar
    61    35    32   ar
    62    36    33   ar
    63    47    46   ar
    64    47    43   ar
    65    46    45   ar
    66    54    62    1
    67    13     7    1
    68    13    16    1
    69    13    14    1
    70    32    20    1
    71    32    30   ar
    72     7     6   ar
    73     7     4   ar
    74    27    19    1
    75    20    21   ar
    76    20    19   ar
    77    21    17   ar
    78    19    18   ar
    79    18    17   ar
    80    18    22    1
    81    24    23    1
    82    17     4    1
    83    23     5    1
    84    23    25    1
    85     6     8    1
    86     6     3   ar
    87     4     2   ar
    88     1     2   ar
    89     1     3   ar
    90     1    10    1
    91     3     9    1
    92    10    11    3
    93    33    43    1
    94    33    31   ar
    95    11    12    1
    96    43    44   ar
    97    45    44   ar
    98    45    53    1
    99    62    63    3
   100    44    49    1
   101    30    31   ar
   102    30    38    1
   103    31    34    1
   104    49    52    1
   105    49    50    1
   106    63    64    1
   107    38    39    1
