@<TRIPOS>MOLECULE
mol_data/noopt/geoms/mol2/4ei4ei-4ei.out
 47 49 0 0 0
SMALL
GASTEIGER

@<TRIPOS>ATOM
      1 C           0.0509    0.0309    0.0002 C.ar    1  LIG1        0.0253
      2 C           1.4592    0.0309    0.0002 C.ar    1  LIG1       -0.0383
      3 C          -0.6045    1.2792    0.0002 C.ar    1  LIG1       -0.0460
      4 C           2.1849    1.2200   -0.0004 C.ar    1  LIG1       -0.0133
      5 H           1.9850   -0.9213    0.0004 H       1  LIG1        0.0636
      6 C           0.1195    2.4666   -0.0004 C.ar    1  LIG1       -0.0568
      7 C           1.5181    2.4458   -0.0008 C.ar    1  LIG1       -0.0393
      8 H          -0.4090    3.4165   -0.0003 H       1  LIG1        0.0621
      9 H          -1.9035    1.3287    0.0016 H       1  LIG1        0.0630
     10 C          -0.5708   -1.1108    0.0005 C.1     1  LIG1       -0.0696
     11 C          -1.1453   -2.1657    0.0008 C.1     1  LIG1       -0.1139
     12 H          -1.6571   -3.1054    0.0010 H       1  LIG1        0.1232
     13 C           2.1897    3.5592   -0.0012 C.3     1  LIG1       -0.0231
     14 H           1.6260    4.3160    0.5031 H       1  LIG1        0.0316
     15 H           2.3738    3.8644   -1.0102 H       1  LIG1        0.0316
     16 H           3.1221    3.4135    0.5030 H       1  LIG1        0.0358
     17 C           4.2212    2.3851    0.0002 C.ar    1  LIG1       -0.0351
     18 C           5.6264    2.2916    0.0016 C.ar    1  LIG1       -0.0497
     19 C           3.4843    1.1831   -0.0005 C.ar    1  LIG1       -0.0138
     20 C           6.2715    1.0569    0.0017 C.ar    1  LIG1       -0.0141
     21 H           6.2143    3.2067    0.0024 H       1  LIG1        0.0627
     22 C           4.1278   -0.0498   -0.0004 C.ar    1  LIG1       -0.0500
     23 C           5.5247   -0.1219    0.0006 C.ar    1  LIG1       -0.0387
     24 H           3.5374   -0.9625   -0.0009 H       1  LIG1        0.0627
     25 C           3.6767    3.5656   -0.0001 C.3     1  LIG1       -0.0048
     26 C           3.1735    4.6563   -0.0004 C.3     1  LIG1       -0.0263
     27 H           2.7253    5.6279   -0.0006 H       1  LIG1        0.0313
     28 C           6.1209   -1.2775    0.0008 C.3     1  LIG1       -0.0231
     29 H           7.0608   -1.1938    0.5053 H       1  LIG1        0.0358
     30 H           6.2846   -1.5946   -1.0080 H       1  LIG1        0.0316
     31 H           5.5080   -1.9949    0.5052 H       1  LIG1        0.0316
     32 C           8.2259   -0.2409    0.0043 C.ar    1  LIG1       -0.0357
     33 C           9.6342   -0.2409    0.0071 C.ar    1  LIG1       -0.0575
     34 C           7.5705    1.0074    0.0029 C.ar    1  LIG1       -0.0139
     35 C          10.3599    0.9482    0.0079 C.ar    1  LIG1       -0.0585
     36 H          10.1600   -1.1931    0.0084 H       1  LIG1        0.0621
     37 C           8.2945    2.1948    0.0036 C.ar    1  LIG1       -0.0508
     38 C           9.6931    2.1740    0.0060 C.ar    1  LIG1       -0.0499
     39 H           7.7660    3.1447    0.0026 H       1  LIG1        0.0626
     40 H          11.6594    0.9113    0.0104 H       1  LIG1        0.0620
     41 C           7.6041   -1.3826    0.0034 C.3     1  LIG1       -0.0048
     42 C           7.0297   -2.4375    0.0026 C.3     1  LIG1       -0.0263
     43 H           6.5179   -3.3772    0.0019 H       1  LIG1        0.0313
     44 C          10.3647    3.2874    0.0069 C.3     1  LIG1       -0.0397
     45 H           9.8007    4.0438    0.5116 H       1  LIG1        0.0278
     46 H          10.5493    3.5934   -1.0017 H       1  LIG1        0.0278
     47 H          11.2969    3.1412    0.5115 H       1  LIG1        0.0278
@<TRIPOS>BOND
     1    15    13    1
     2    30    28    1
     3    46    44    1
     4    13     7    1
     5    13    14    1
     6    24    22    1
     7     7     4   ar
     8     7     6   ar
     9    27    26    1
    10    19    22   ar
    11    19     4    1
    12    19    17   ar
    13    22    23   ar
    14     4     2   ar
    15     6     8    1
    16     6     3   ar
    17    26    25    1
    18    25    17    1
    19    25    16    1
    20    17    18   ar
    21     1     2   ar
    22     1     3   ar
    23     1    10    1
    24     2     5    1
    25     3     9    1
    26    10    11    3
    27    23    28    1
    28    23    20   ar
    29    11    12    1
    30    28    31    1
    31    18    20   ar
    32    18    21    1
    33    20    34    1
    34    43    42    1
    35    39    37    1
    36    42    41    1
    37    34    37   ar
    38    34    32   ar
    39    41    32    1
    40    41    29    1
    41    37    38   ar
    42    32    33   ar
    43    38    44    1
    44    38    35   ar
    45    44    47    1
    46    44    45    1
    47    33    35   ar
    48    33    36    1
    49    35    40    1
