@<TRIPOS>MOLECULE
mol_data/noopt/geoms/mol2/4ei4ei-4ei-4ei.out
 62 65 0 0 0
SMALL
GASTEIGER

@<TRIPOS>ATOM
      1 C           0.0509    0.0309    0.0002 C.ar    1  LIG1        0.0253
      2 C           1.4592    0.0309    0.0002 C.ar    1  LIG1       -0.0383
      3 C          -0.6045    1.2792    0.0002 C.ar    1  LIG1       -0.0460
      4 C           2.1849    1.2200   -0.0004 C.ar    1  LIG1       -0.0133
      5 H           1.9850   -0.9213    0.0004 H       1  LIG1        0.0636
      6 C           0.1195    2.4666   -0.0004 C.ar    1  LIG1       -0.0568
      7 C           1.5181    2.4458   -0.0008 C.ar    1  LIG1       -0.0393
      8 H          -0.4090    3.4165   -0.0003 H       1  LIG1        0.0621
      9 H          -1.9035    1.3287    0.0016 H       1  LIG1        0.0630
     10 C          -0.5708   -1.1108    0.0005 C.1     1  LIG1       -0.0696
     11 C          -1.1453   -2.1657    0.0008 C.1     1  LIG1       -0.1139
     12 H          -1.6571   -3.1054    0.0010 H       1  LIG1        0.1232
     13 C           2.1897    3.5592   -0.0012 C.3     1  LIG1       -0.0231
     14 H           1.6260    4.3160    0.5031 H       1  LIG1        0.0316
     15 H           2.3738    3.8644   -1.0102 H       1  LIG1        0.0316
     16 H           3.1221    3.4135    0.5030 H       1  LIG1        0.0358
     17 C           4.2212    2.3851    0.0002 C.ar    1  LIG1       -0.0351
     18 C           5.6264    2.2916    0.0016 C.ar    1  LIG1       -0.0497
     19 C           3.4843    1.1831   -0.0005 C.ar    1  LIG1       -0.0138
     20 C           6.2715    1.0569    0.0017 C.ar    1  LIG1       -0.0135
     21 H           6.2143    3.2067    0.0024 H       1  LIG1        0.0627
     22 C           4.1278   -0.0498   -0.0004 C.ar    1  LIG1       -0.0503
     23 C           5.5247   -0.1219    0.0006 C.ar    1  LIG1       -0.0421
     24 H           3.5374   -0.9625   -0.0009 H       1  LIG1        0.0627
     25 C           3.6767    3.5656   -0.0001 C.3     1  LIG1       -0.0048
     26 C           3.1735    4.6563   -0.0004 C.3     1  LIG1       -0.0263
     27 H           2.7253    5.6279   -0.0006 H       1  LIG1        0.0313
     28 C           6.1209   -1.2775    0.0008 C.3     1  LIG1       -0.0391
     29 H           7.0608   -1.1938    0.5053 H       1  LIG1        0.0278
     30 H           6.2846   -1.5946   -1.0080 H       1  LIG1        0.0278
     31 H           5.5080   -1.9949    0.5052 H       1  LIG1        0.0278
     32 C           8.3190    2.2022    0.0043 C.ar    1  LIG1        0.0330
     33 C           9.7232    2.0950    0.0071 C.ar    1  LIG1       -0.0378
     34 C           7.5705    1.0074    0.0029 C.ar    1  LIG1       -0.0020
     35 C          10.3563    0.8541    0.0079 C.ar    1  LIG1       -0.0132
     36 H          10.3199    3.0044    0.0084 H       1  LIG1        0.0636
     37 C           8.2020   -0.2317    0.0037 C.ar    1  LIG1       -0.0491
     38 C           9.5982   -0.3174    0.0061 C.ar    1  LIG1       -0.0387
     39 H           7.6028   -1.1386    0.0026 H       1  LIG1        0.0627
     40 C           7.7859    3.3879    0.0034 C.1     1  LIG1       -0.0690
     41 C           7.2934    4.4834    0.0026 C.1     1  LIG1       -0.1139
     42 H           6.8546    5.4594    0.0019 H       1  LIG1        0.1232
     43 C          10.1831   -1.4787    0.0069 C.3     1  LIG1       -0.0231
     44 H          11.1237   -1.4039    0.5116 H       1  LIG1        0.0358
     45 H          10.3439   -1.7978   -1.0017 H       1  LIG1        0.0316
     46 H           9.5631   -2.1899    0.5115 H       1  LIG1        0.0316
     47 C          12.2980   -0.4626    0.0125 C.ar    1  LIG1       -0.0357
     48 C          13.7062   -0.4762    0.0167 C.ar    1  LIG1       -0.0575
     49 C          11.6548    0.7920    0.0104 C.ar    1  LIG1       -0.0139
     50 C          14.4434    0.7058    0.0181 C.ar    1  LIG1       -0.0585
     51 H          14.2228   -1.4335    0.0186 H       1  LIG1        0.0621
     52 C          12.3902    1.9724    0.0118 C.ar    1  LIG1       -0.0508
     53 C          13.7886    1.9380    0.0156 C.ar    1  LIG1       -0.0499
     54 H          11.8710    2.9273    0.0102 H       1  LIG1        0.0626
     55 H          15.7425    0.6563    0.0219 H       1  LIG1        0.0620
     56 C          11.6652   -1.5982    0.0110 C.3     1  LIG1       -0.0048
     57 C          11.0805   -2.6475    0.0097 C.3     1  LIG1       -0.0263
     58 H          10.5597   -3.5821    0.0085 H       1  LIG1        0.0313
     59 C          14.4710    3.0448    0.0171 C.3     1  LIG1       -0.0397
     60 H          13.9142    3.8065    0.5219 H       1  LIG1        0.0278
     61 H          14.6587    3.3495   -0.9914 H       1  LIG1        0.0278
     62 H          15.4015    2.8894    0.5219 H       1  LIG1        0.0278
@<TRIPOS>BOND
     1    15    13    1
     2    30    28    1
     3    45    43    1
     4    61    59    1
     5    13     7    1
     6    13    14    1
     7    24    22    1
     8     7     4   ar
     9     7     6   ar
    10    27    26    1
    11    19    22   ar
    12    19     4    1
    13    19    17   ar
    14    22    23   ar
    15     4     2   ar
    16     6     8    1
    17     6     3   ar
    18    26    25    1
    19    25    17    1
    20    25    16    1
    21    17    18   ar
    22     1     3   ar
    23     1     2   ar
    24     1    10    1
    25     3     9    1
    26     2     5    1
    27    10    11    3
    28    23    28    1
    29    23    20   ar
    30    11    12    1
    31    28    31    1
    32    28    29    1
    33    18    20   ar
    34    18    21    1
    35    20    34    1
    36    42    41    1
    37    41    40    3
    38    39    37    1
    39    34    37   ar
    40    34    32   ar
    41    40    32    1
    42    37    38   ar
    43    32    33   ar
    44    38    43    1
    45    38    35   ar
    46    43    46    1
    47    33    35   ar
    48    33    36    1
    49    35    49    1
    50    58    57    1
    51    57    56    1
    52    54    52    1
    53    49    52   ar
    54    49    47   ar
    55    56    47    1
    56    56    44    1
    57    52    53   ar
    58    47    48   ar
    59    53    59    1
    60    53    50   ar
    61    48    50   ar
    62    48    51    1
    63    59    62    1
    64    59    60    1
    65    50    55    1
