@<TRIPOS>MOLECULE
mol_data/noopt/geoms/mol2/4ei4ad-6af-6ff-.out
 49 52 0 0 0
SMALL
GASTEIGER

@<TRIPOS>ATOM
      1 C           0.0509    0.0309    0.0002 C.ar    1  LIG1        0.0253
      2 C           1.4592    0.0309    0.0002 C.ar    1  LIG1       -0.0384
      3 C          -0.6045    1.2792    0.0002 C.ar    1  LIG1       -0.0461
      4 C           2.1849    1.2200   -0.0004 C.ar    1  LIG1       -0.0138
      5 H           1.9850   -0.9213    0.0004 H       1  LIG1        0.0636
      6 C           0.1195    2.4666   -0.0004 C.ar    1  LIG1       -0.0571
      7 C           1.5181    2.4458   -0.0008 C.ar    1  LIG1       -0.0427
      8 H          -0.4090    3.4165   -0.0003 H       1  LIG1        0.0621
      9 H          -1.9035    1.3287    0.0016 H       1  LIG1        0.0630
     10 C          -0.5708   -1.1108    0.0005 C.1     1  LIG1       -0.0696
     11 C          -1.1453   -2.1657    0.0008 C.1     1  LIG1       -0.1139
     12 H          -1.6571   -3.1054    0.0010 H       1  LIG1        0.1232
     13 C           2.1897    3.5592   -0.0012 C.3     1  LIG1       -0.0391
     14 H           1.6260    4.3160    0.5031 H       1  LIG1        0.0278
     15 H           2.3738    3.8644   -1.0102 H       1  LIG1        0.0278
     16 H           3.1221    3.4135    0.5030 H       1  LIG1        0.0278
     17 C           4.1518   -0.0586    0.0215 C.ar    1  LIG1       -0.0534
     18 C           5.5600   -0.0449    0.0220 C.ar    1  LIG1       -0.0522
     19 C           3.4843    1.1831   -0.0005 C.ar    1  LIG1       -0.0163
     20 C           6.2742    1.1510    0.0009 C.ar    1  LIG1        0.0011
     21 H           6.0951   -0.9918    0.0390 H       1  LIG1        0.0624
     22 C           4.1968    2.3773   -0.0216 C.ar    1  LIG1       -0.0360
     23 C           5.5955    2.3701   -0.0212 C.ar    1  LIG1        0.0601
     24 H           3.6591    3.3219   -0.0383 H       1  LIG1        0.0637
     25 H           3.5412   -1.2061    0.0416 H       1  LIG1        0.0624
     26 N           6.8388    4.4769   -0.0581 N.1     1  LIG1       -0.1908
     27 C           6.2561    3.4895   -0.0408 C.1     1  LIG1        0.0998
     28 C           8.3076    2.3270   -0.0186 C.ar    1  LIG1        0.0362
     29 C           7.5739    1.1267    0.0018 C.ar    1  LIG1        0.0049
     30 C           8.2729   -0.0816    0.0234 C.ar    1  LIG1       -0.0088
     31 C           9.6684   -0.0508    0.0236 C.ar    1  LIG1        0.1435
     32 C          10.3125    1.1999    0.0020 C.ar    1  LIG1        0.1174
     33 N           9.6539    2.3752   -0.0188 N.ar    1  LIG1       -0.2505
     34 H           7.7339   -1.0395    0.0388 H       1  LIG1        0.0661
     35 H           7.7019    3.4771   -0.0390 H       1  LIG1        0.0836
     36 O          10.3649   -1.1483    0.0430 O.3     1  LIG1       -0.5046
     37 H          11.3007   -0.9339    0.0478 H       1  LIG1        0.2922
     38 C          12.2446    2.5359   -0.0200 C.ar    1  LIG1        0.2220
     39 C          11.6100    1.2804    0.0013 C.ar    1  LIG1        0.0687
     40 C          12.4040    0.1323    0.0220 C.ar    1  LIG1       -0.0043
     41 C          13.7925    0.2755    0.0204 C.ar    1  LIG1        0.1357
     42 C          14.3337    1.5740   -0.0020 C.ar    1  LIG1        0.0728
     43 N          13.5826    2.6924   -0.0219 N.ar    1  LIG1       -0.2172
     44 H          11.9439   -0.8659    0.0380 H       1  LIG1        0.0663
     45 H          15.6205    1.7587   -0.0043 H       1  LIG1        0.0868
     46 O          11.5482    3.6335   -0.0396 O.3     1  LIG1       -0.4919
     47 H          10.6124    3.4192   -0.0445 H       1  LIG1        0.2937
     48 O          14.5752   -0.7624    0.0389 O.3     1  LIG1       -0.5052
     49 H          15.4906   -0.4734    0.0435 H       1  LIG1        0.2922
@<TRIPOS>BOND
     1    15    13    1
     2    26    27    3
     3    47    46    1
     4    27    23    1
     5    46    38    1
     6    35    28    1
     7    24    22    1
     8    43    38   ar
     9    43    42   ar
    10    22    23   ar
    11    22    19   ar
    12    23    20   ar
    13    38    39   ar
    14    33    28   ar
    15    33    32   ar
    16    28    29   ar
    17    45    42    1
    18    42    41   ar
    19    13     7    1
    20    13    16    1
    21    13    14    1
    22     7     4   ar
    23     7     6   ar
    24    19     4    1
    25    19    17   ar
    26     4     2   ar
    27     6     8    1
    28     6     3   ar
    29     2     1   ar
    30     2     5    1
    31     3     1   ar
    32     3     9    1
    33     1    10    1
    34    10    11    3
    35    11    12    1
    36    20    29    1
    37    20    18   ar
    38    39    32    1
    39    39    40   ar
    40    29    30   ar
    41    32    31   ar
    42    41    40   ar
    43    41    48    1
    44    17    18   ar
    45    17    25    1
    46    40    44    1
    47    18    21    1
    48    30    31   ar
    49    30    34    1
    50    31    36    1
    51    48    49    1
    52    36    37    1
