@<TRIPOS>MOLECULE
mol_data/noopt/geoms/mol2/4ei4ei4ei.out
 47 49 0 0 0
SMALL
GASTEIGER

@<TRIPOS>ATOM
      1 C           0.0509    0.0309    0.0002 C.ar    1  LIG1        0.0253
      2 C           1.4592    0.0309    0.0002 C.ar    1  LIG1       -0.0383
      3 C          -0.6045    1.2792    0.0002 C.ar    1  LIG1       -0.0461
      4 C           2.1849    1.2200   -0.0004 C.ar    1  LIG1       -0.0126
      5 H           1.9850   -0.9213    0.0004 H       1  LIG1        0.0636
      6 C           0.1195    2.4666   -0.0004 C.ar    1  LIG1       -0.0571
      7 C           1.5181    2.4458   -0.0008 C.ar    1  LIG1       -0.0426
      8 H          -0.4090    3.4165   -0.0003 H       1  LIG1        0.0621
      9 H          -1.9035    1.3287    0.0016 H       1  LIG1        0.0630
     10 C          -0.5708   -1.1108    0.0005 C.1     1  LIG1       -0.0696
     11 C          -1.1453   -2.1657    0.0008 C.1     1  LIG1       -0.1139
     12 H          -1.6571   -3.1054    0.0010 H       1  LIG1        0.1232
     13 C           2.1897    3.5592   -0.0012 C.3     1  LIG1       -0.0391
     14 H           1.6260    4.3160    0.5031 H       1  LIG1        0.0278
     15 H           2.3738    3.8644   -1.0102 H       1  LIG1        0.0278
     16 H           3.1221    3.4135    0.5030 H       1  LIG1        0.0278
     17 C           4.1518   -0.0588    0.0002 C.ar    1  LIG1        0.0330
     18 C           5.5600   -0.0451    0.0016 C.ar    1  LIG1       -0.0377
     19 C           3.4843    1.1831   -0.0005 C.ar    1  LIG1       -0.0019
     20 C           6.2742    1.1510    0.0017 C.ar    1  LIG1       -0.0126
     21 H           6.0950   -0.9922    0.0024 H       1  LIG1        0.0636
     22 C           4.1968    2.3775   -0.0004 C.ar    1  LIG1       -0.0494
     23 C           5.5955    2.3702    0.0006 C.ar    1  LIG1       -0.0421
     24 H           3.6591    3.3222   -0.0009 H       1  LIG1        0.0627
     25 C           3.5412   -1.2064   -0.0001 C.1     1  LIG1       -0.0690
     26 C           2.9769   -2.2669   -0.0003 C.1     1  LIG1       -0.1139
     27 H           2.4743   -3.2115   -0.0006 H       1  LIG1        0.1232
     28 C           6.2563    3.4901    0.0008 C.3     1  LIG1       -0.0391
     29 H           5.6851    4.2412    0.5053 H       1  LIG1        0.0278
     30 H           6.4376    3.7975   -1.0080 H       1  LIG1        0.0278
     31 H           7.1900    3.3532    0.5052 H       1  LIG1        0.0278
     32 C           8.2534   -0.1087    0.0043 C.ar    1  LIG1        0.0324
     33 C           9.6614   -0.0814    0.0071 C.ar    1  LIG1       -0.0455
     34 C           7.5739    1.1267    0.0029 C.ar    1  LIG1       -0.0020
     35 C          10.3639    1.1216    0.0079 C.ar    1  LIG1       -0.0576
     36 H          10.2056   -1.0232    0.0084 H       1  LIG1        0.0630
     37 C           8.2747    2.3279    0.0036 C.ar    1  LIG1       -0.0499
     38 C           9.6734    2.3342    0.0060 C.ar    1  LIG1       -0.0498
     39 H           7.7279    3.2674    0.0026 H       1  LIG1        0.0627
     40 H          11.6639    1.1099    0.0104 H       1  LIG1        0.0621
     41 C           7.6539   -1.2622    0.0034 C.1     1  LIG1       -0.0691
     42 C           7.1000   -2.3281    0.0026 C.1     1  LIG1       -0.1139
     43 H           6.6066   -3.2775    0.0019 H       1  LIG1        0.1232
     44 C          10.3234    3.4605    0.0069 C.3     1  LIG1       -0.0397
     45 H           9.7448    4.2058    0.5116 H       1  LIG1        0.0278
     46 H          10.5019    3.7700   -1.0017 H       1  LIG1        0.0278
     47 H          11.2582    3.3324    0.5115 H       1  LIG1        0.0278
@<TRIPOS>BOND
     1    15    13    1
     2    30    28    1
     3    46    44    1
     4    13     7    1
     5    13    16    1
     6    13    14    1
     7    24    22    1
     8     7     4   ar
     9     7     6   ar
    10    27    26    1
    11    19    22   ar
    12    19     4    1
    13    19    17   ar
    14    22    23   ar
    15     4     2   ar
    16     6     8    1
    17     6     3   ar
    18    26    25    3
    19    25    17    1
    20     1     2   ar
    21     1     3   ar
    22     1    10    1
    23     2     5    1
    24     3     9    1
    25    17    18   ar
    26    10    11    3
    27    23    28    1
    28    23    20   ar
    29    11    12    1
    30    28    31    1
    31    28    29    1
    32    18    20   ar
    33    18    21    1
    34    20    34    1
    35    43    42    1
    36    39    37    1
    37    42    41    3
    38    34    37   ar
    39    34    32   ar
    40    41    32    1
    41    37    38   ar
    42    32    33   ar
    43    38    44    1
    44    38    35   ar
    45    44    47    1
    46    44    45    1
    47    33    35   ar
    48    33    36    1
    49    35    40    1
