@<TRIPOS>MOLECULE
mol_data/noopt/geoms/mol2/4ei4ei4ei-4ei-.out
 62 65 0 0 0
SMALL
GASTEIGER

@<TRIPOS>ATOM
      1 C           0.0509    0.0309    0.0002 C.ar    1  LIG1        0.0253
      2 C           1.4592    0.0309    0.0002 C.ar    1  LIG1       -0.0383
      3 C          -0.6045    1.2792    0.0002 C.ar    1  LIG1       -0.0461
      4 C           2.1849    1.2200   -0.0004 C.ar    1  LIG1       -0.0126
      5 H           1.9850   -0.9213    0.0004 H       1  LIG1        0.0636
      6 C           0.1195    2.4666   -0.0004 C.ar    1  LIG1       -0.0571
      7 C           1.5181    2.4458   -0.0008 C.ar    1  LIG1       -0.0426
      8 H          -0.4090    3.4165   -0.0003 H       1  LIG1        0.0621
      9 H          -1.9035    1.3287    0.0016 H       1  LIG1        0.0630
     10 C          -0.5708   -1.1108    0.0005 C.1     1  LIG1       -0.0696
     11 C          -1.1453   -2.1657    0.0008 C.1     1  LIG1       -0.1139
     12 H          -1.6571   -3.1054    0.0010 H       1  LIG1        0.1232
     13 C           2.1897    3.5592   -0.0012 C.3     1  LIG1       -0.0391
     14 H           1.6260    4.3160    0.5031 H       1  LIG1        0.0278
     15 H           2.3738    3.8644   -1.0102 H       1  LIG1        0.0278
     16 H           3.1221    3.4135    0.5030 H       1  LIG1        0.0278
     17 C           4.1518   -0.0588    0.0002 C.ar    1  LIG1        0.0330
     18 C           5.5600   -0.0451    0.0016 C.ar    1  LIG1       -0.0378
     19 C           3.4843    1.1831   -0.0005 C.ar    1  LIG1       -0.0019
     20 C           6.2742    1.1510    0.0017 C.ar    1  LIG1       -0.0132
     21 H           6.0950   -0.9922    0.0024 H       1  LIG1        0.0636
     22 C           4.1968    2.3775   -0.0004 C.ar    1  LIG1       -0.0491
     23 C           5.5955    2.3702    0.0006 C.ar    1  LIG1       -0.0387
     24 H           3.6591    3.3222   -0.0009 H       1  LIG1        0.0627
     25 C           3.5412   -1.2064   -0.0001 C.1     1  LIG1       -0.0690
     26 C           2.9769   -2.2669   -0.0003 C.1     1  LIG1       -0.1139
     27 H           2.4743   -3.2115   -0.0006 H       1  LIG1        0.1232
     28 C           6.2563    3.4901    0.0008 C.3     1  LIG1       -0.0231
     29 H           5.6851    4.2412    0.5053 H       1  LIG1        0.0316
     30 H           6.4376    3.7975   -1.0080 H       1  LIG1        0.0316
     31 H           7.1900    3.3532    0.5052 H       1  LIG1        0.0358
     32 C           8.2991    2.3358    0.0043 C.ar    1  LIG1       -0.0351
     33 C           9.7051    2.2559    0.0071 C.ar    1  LIG1       -0.0497
     34 C           7.5739    1.1267    0.0029 C.ar    1  LIG1       -0.0138
     35 C          10.3621    1.0275    0.0079 C.ar    1  LIG1       -0.0135
     36 H          10.2841    3.1767    0.0084 H       1  LIG1        0.0627
     37 C           8.2293   -0.0999    0.0037 C.ar    1  LIG1       -0.0503
     38 C           9.6269   -0.1585    0.0061 C.ar    1  LIG1       -0.0421
     39 H           7.6478   -1.0183    0.0026 H       1  LIG1        0.0627
     40 C           7.7431    3.5109    0.0034 C.3     1  LIG1       -0.0048
     41 C           7.2294    4.5967    0.0026 C.3     1  LIG1       -0.0263
     42 H           6.7718    5.5639    0.0019 H       1  LIG1        0.0313
     43 C          10.2342   -1.3082    0.0069 C.3     1  LIG1       -0.0391
     44 H          11.1732   -1.2153    0.5116 H       1  LIG1        0.0278
     45 H          10.4012   -1.6242   -1.0017 H       1  LIG1        0.0278
     46 H           9.6281   -2.0314    0.5115 H       1  LIG1        0.0278
     47 C          12.3984    2.1926    0.0125 C.ar    1  LIG1        0.0324
     48 C          13.8036    2.0991    0.0167 C.ar    1  LIG1       -0.0455
     49 C          11.6616    0.9906    0.0104 C.ar    1  LIG1       -0.0020
     50 C          14.4487    0.8644    0.0181 C.ar    1  LIG1       -0.0576
     51 H          14.3915    3.0142    0.0186 H       1  LIG1        0.0630
     52 C          12.3051   -0.2423    0.0118 C.ar    1  LIG1       -0.0499
     53 C          13.7020   -0.3144    0.0156 C.ar    1  LIG1       -0.0498
     54 H          11.7147   -1.1550    0.0102 H       1  LIG1        0.0627
     55 H          15.7478    0.8149    0.0219 H       1  LIG1        0.0621
     56 C          11.8539    3.3731    0.0110 C.1     1  LIG1       -0.0691
     57 C          11.3507    4.4638    0.0097 C.1     1  LIG1       -0.1139
     58 H          10.9026    5.4354    0.0085 H       1  LIG1        0.1232
     59 C          14.2982   -1.4700    0.0171 C.3     1  LIG1       -0.0397
     60 H          15.2378   -1.3859    0.5219 H       1  LIG1        0.0278
     61 H          14.4623   -1.7880   -0.9913 H       1  LIG1        0.0278
     62 H          13.6850   -2.1870    0.5219 H       1  LIG1        0.0278
@<TRIPOS>BOND
     1    15    13    1
     2    30    28    1
     3    45    43    1
     4    61    59    1
     5    13     7    1
     6    13    16    1
     7    13    14    1
     8    24    22    1
     9     7     6   ar
    10     7     4   ar
    11    27    26    1
    12    19    22   ar
    13    19     4    1
    14    19    17   ar
    15    22    23   ar
    16     6     8    1
    17     6     3   ar
    18     4     2   ar
    19    26    25    3
    20    25    17    1
    21     1     3   ar
    22     1     2   ar
    23     1    10    1
    24     3     9    1
    25     2     5    1
    26    17    18   ar
    27    10    11    3
    28    23    28    1
    29    23    20   ar
    30    11    12    1
    31    28    29    1
    32    18    20   ar
    33    18    21    1
    34    20    34    1
    35    42    41    1
    36    41    40    1
    37    39    37    1
    38    34    37   ar
    39    34    32   ar
    40    40    32    1
    41    40    31    1
    42    37    38   ar
    43    32    33   ar
    44    38    43    1
    45    38    35   ar
    46    43    46    1
    47    43    44    1
    48    33    35   ar
    49    33    36    1
    50    35    49    1
    51    58    57    1
    52    57    56    3
    53    54    52    1
    54    49    52   ar
    55    49    47   ar
    56    56    47    1
    57    52    53   ar
    58    47    48   ar
    59    53    59    1
    60    53    50   ar
    61    48    50   ar
    62    48    51    1
    63    59    62    1
    64    59    60    1
    65    50    55    1
