@<TRIPOS>MOLECULE
mol_data/noopt/geoms/mol2/4ei4ei4ei4ei-.out
 62 65 0 0 0
SMALL
GASTEIGER

@<TRIPOS>ATOM
      1 C           0.0509    0.0309    0.0002 C.ar    1  LIG1        0.0253
      2 C           1.4592    0.0309    0.0002 C.ar    1  LIG1       -0.0383
      3 C          -0.6045    1.2792    0.0002 C.ar    1  LIG1       -0.0461
      4 C           2.1849    1.2200   -0.0004 C.ar    1  LIG1       -0.0126
      5 H           1.9850   -0.9213    0.0004 H       1  LIG1        0.0636
      6 C           0.1195    2.4666   -0.0004 C.ar    1  LIG1       -0.0571
      7 C           1.5181    2.4458   -0.0008 C.ar    1  LIG1       -0.0426
      8 H          -0.4090    3.4165   -0.0003 H       1  LIG1        0.0621
      9 H          -1.9035    1.3287    0.0016 H       1  LIG1        0.0630
     10 C          -0.5708   -1.1108    0.0005 C.1     1  LIG1       -0.0696
     11 C          -1.1453   -2.1657    0.0008 C.1     1  LIG1       -0.1139
     12 H          -1.6571   -3.1054    0.0010 H       1  LIG1        0.1232
     13 C           2.1897    3.5592   -0.0012 C.3     1  LIG1       -0.0391
     14 H           1.6260    4.3160    0.5031 H       1  LIG1        0.0278
     15 H           2.3738    3.8644   -1.0102 H       1  LIG1        0.0278
     16 H           3.1221    3.4135    0.5030 H       1  LIG1        0.0278
     17 C           4.1518   -0.0588    0.0002 C.ar    1  LIG1        0.0330
     18 C           5.5600   -0.0451    0.0016 C.ar    1  LIG1       -0.0377
     19 C           3.4843    1.1831   -0.0005 C.ar    1  LIG1       -0.0019
     20 C           6.2742    1.1510    0.0017 C.ar    1  LIG1       -0.0126
     21 H           6.0950   -0.9922    0.0024 H       1  LIG1        0.0636
     22 C           4.1968    2.3775   -0.0004 C.ar    1  LIG1       -0.0494
     23 C           5.5955    2.3702    0.0006 C.ar    1  LIG1       -0.0421
     24 H           3.6591    3.3222   -0.0009 H       1  LIG1        0.0627
     25 C           3.5412   -1.2064   -0.0001 C.1     1  LIG1       -0.0690
     26 C           2.9769   -2.2669   -0.0003 C.1     1  LIG1       -0.1139
     27 H           2.4743   -3.2115   -0.0006 H       1  LIG1        0.1232
     28 C           6.2563    3.4901    0.0008 C.3     1  LIG1       -0.0391
     29 H           5.6851    4.2412    0.5053 H       1  LIG1        0.0278
     30 H           6.4376    3.7975   -1.0080 H       1  LIG1        0.0278
     31 H           7.1900    3.3532    0.5052 H       1  LIG1        0.0278
     32 C           8.2534   -0.1087    0.0043 C.ar    1  LIG1        0.0330
     33 C           9.6614   -0.0814    0.0071 C.ar    1  LIG1       -0.0378
     34 C           7.5739    1.1267    0.0029 C.ar    1  LIG1       -0.0019
     35 C          10.3639    1.1216    0.0079 C.ar    1  LIG1       -0.0132
     36 H          10.2056   -1.0232    0.0084 H       1  LIG1        0.0636
     37 C           8.2747    2.3279    0.0036 C.ar    1  LIG1       -0.0491
     38 C           9.6734    2.3342    0.0060 C.ar    1  LIG1       -0.0387
     39 H           7.7279    3.2674    0.0026 H       1  LIG1        0.0627
     40 C           7.6539   -1.2622    0.0034 C.1     1  LIG1       -0.0690
     41 C           7.1000   -2.3281    0.0026 C.1     1  LIG1       -0.1139
     42 H           6.6066   -3.2775    0.0019 H       1  LIG1        0.1232
     43 C          10.3234    3.4605    0.0069 C.3     1  LIG1       -0.0231
     44 H           9.7448    4.2058    0.5116 H       1  LIG1        0.0316
     45 H          10.5019    3.7700   -1.0017 H       1  LIG1        0.0316
     46 H          11.2582    3.3324    0.5115 H       1  LIG1        0.0358
     47 C          12.3772    2.3260    0.0125 C.ar    1  LIG1       -0.0357
     48 C          13.7839    2.2597    0.0167 C.ar    1  LIG1       -0.0575
     49 C          11.6638    1.1099    0.0104 C.ar    1  LIG1       -0.0139
     50 C          14.4529    1.0378    0.0181 C.ar    1  LIG1       -0.0585
     51 H          14.3540    3.1861    0.0186 H       1  LIG1        0.0621
     52 C          12.3311   -0.1102    0.0118 C.ar    1  LIG1       -0.0508
     53 C          13.7291   -0.1553    0.0156 C.ar    1  LIG1       -0.0499
     54 H          11.7585   -1.0342    0.0102 H       1  LIG1        0.0626
     55 H          15.7527    1.0135    0.0219 H       1  LIG1        0.0620
     56 C          11.8099    3.4957    0.0110 C.3     1  LIG1       -0.0048
     57 C          11.2857    4.5764    0.0097 C.3     1  LIG1       -0.0263
     58 H          10.8187    5.5392    0.0085 H       1  LIG1        0.0313
     59 C          14.3476   -1.2991    0.0171 C.3     1  LIG1       -0.0397
     60 H          15.2855   -1.1968    0.5219 H       1  LIG1        0.0278
     61 H          14.5179   -1.6138   -0.9913 H       1  LIG1        0.0278
     62 H          13.7485   -2.0279    0.5219 H       1  LIG1        0.0278
@<TRIPOS>BOND
     1    15    13    1
     2    30    28    1
     3    45    43    1
     4    61    59    1
     5    13     7    1
     6    13    16    1
     7    13    14    1
     8    24    22    1
     9     7     4   ar
    10     7     6   ar
    11    27    26    1
    12    19    22   ar
    13    19     4    1
    14    19    17   ar
    15    22    23   ar
    16     4     2   ar
    17     6     8    1
    18     6     3   ar
    19    26    25    3
    20    25    17    1
    21     1     3   ar
    22     1     2   ar
    23     1    10    1
    24     3     9    1
    25     2     5    1
    26    17    18   ar
    27    10    11    3
    28    23    28    1
    29    23    20   ar
    30    11    12    1
    31    28    31    1
    32    28    29    1
    33    18    20   ar
    34    18    21    1
    35    20    34    1
    36    42    41    1
    37    39    37    1
    38    41    40    3
    39    34    37   ar
    40    34    32   ar
    41    40    32    1
    42    37    38   ar
    43    32    33   ar
    44    38    43    1
    45    38    35   ar
    46    43    44    1
    47    33    35   ar
    48    33    36    1
    49    35    49    1
    50    58    57    1
    51    57    56    1
    52    54    52    1
    53    49    52   ar
    54    49    47   ar
    55    56    47    1
    56    56    46    1
    57    52    53   ar
    58    47    48   ar
    59    53    59    1
    60    53    50   ar
    61    48    50   ar
    62    48    51    1
    63    59    62    1
    64    59    60    1
    65    50    55    1
