@<TRIPOS>MOLECULE
mol_data/noopt/geoms/mol2/4ei4ih12hh-12ie-.out
 55 58 0 0 0
SMALL
GASTEIGER

@<TRIPOS>ATOM
      1 C           0.0509    0.0309    0.0002 C.ar    1  LIG1        0.0253
      2 C           1.4592    0.0309    0.0002 C.ar    1  LIG1       -0.0384
      3 C          -0.6045    1.2792    0.0002 C.ar    1  LIG1       -0.0461
      4 C           2.1849    1.2200   -0.0004 C.ar    1  LIG1       -0.0135
      5 H           1.9850   -0.9213    0.0004 H       1  LIG1        0.0636
      6 C           0.1195    2.4666   -0.0004 C.ar    1  LIG1       -0.0571
      7 C           1.5181    2.4458   -0.0008 C.ar    1  LIG1       -0.0427
      8 H          -0.4090    3.4165   -0.0003 H       1  LIG1        0.0621
      9 H          -1.9035    1.3287    0.0016 H       1  LIG1        0.0630
     10 C          -0.5708   -1.1108    0.0005 C.1     1  LIG1       -0.0696
     11 C          -1.1453   -2.1657    0.0008 C.1     1  LIG1       -0.1139
     12 H          -1.6571   -3.1054    0.0010 H       1  LIG1        0.1232
     13 C           2.1897    3.5592   -0.0012 C.3     1  LIG1       -0.0391
     14 H           1.6260    4.3160    0.5031 H       1  LIG1        0.0278
     15 H           2.3738    3.8644   -1.0102 H       1  LIG1        0.0278
     16 H           3.1221    3.4135    0.5030 H       1  LIG1        0.0278
     17 C           4.1518   -0.0588    0.0002 C.ar    1  LIG1       -0.0420
     18 C           5.5600   -0.0451    0.0016 C.ar    1  LIG1       -0.0458
     19 C           3.4843    1.1831   -0.0005 C.ar    1  LIG1       -0.0129
     20 C           6.2742    1.1510    0.0017 C.ar    1  LIG1        0.0401
     21 H           6.0950   -0.9922    0.0024 H       1  LIG1        0.0628
     22 C           4.1968    2.3775   -0.0004 C.ar    1  LIG1       -0.0324
     23 C           5.5955    2.3702    0.0006 C.ar    1  LIG1        0.0360
     24 H           3.6591    3.3222   -0.0009 H       1  LIG1        0.0642
     25 C           3.5410   -1.2067   -0.0001 C.3     1  LIG1       -0.0391
     26 H           4.1447   -1.9321    0.5043 H       1  LIG1        0.0278
     27 H           3.3736   -1.5215   -1.0090 H       1  LIG1        0.0278
     28 H           2.6021   -1.1113    0.5042 H       1  LIG1        0.0278
     29 N           6.2562    3.4899    0.0008 N.pl3   1  LIG1       -0.3574
     30 H           7.1288    3.3621   -0.4705 H       1  LIG1        0.1423
     31 H           5.7224    4.1919   -0.4706 H       1  LIG1        0.1423
     32 C           7.5739    1.1267    0.0029 C.ar    1  LIG1        0.1600
     33 C           8.5390    0.1411    0.0186 C.ar    1  LIG1        0.0928
     34 C           9.8206    0.8153    0.0091 C.ar    1  LIG1        0.0957
     35 C           9.5534    2.1688   -0.0119 C.ar    1  LIG1        0.1932
     36 O           8.1751    2.3860   -0.0162 O.2     1  LIG1       -0.4478
     37 N           8.3611   -1.1465    0.0383 N.pl3   1  LIG1       -0.3536
     38 H           7.5057   -1.3720   -0.4280 H       1  LIG1        0.1425
     39 H           9.1233   -1.5955   -0.4281 H       1  LIG1        0.1425
     40 N          10.9830    0.2333    0.0187 N.pl3   1  LIG1       -0.3535
     41 H          10.9185   -0.6476   -0.4502 H       1  LIG1        0.1425
     42 H          11.6497    0.8125   -0.4502 H       1  LIG1        0.1425
     43 C          10.2689    3.2540   -0.0281 C.ar    1  LIG1        0.1757
     44 C          11.6179    3.5423   -0.0403 C.ar    1  LIG1        0.0138
     45 C          11.7334    4.9857   -0.0560 C.ar    1  LIG1        0.0659
     46 C          10.4467    5.4838   -0.0525 C.ar    1  LIG1        0.1083
     47 O           9.5262    4.4355   -0.0354 O.2     1  LIG1       -0.4582
     48 H           9.9122    6.6688   -0.0611 H       1  LIG1        0.1042
     49 C          12.6112    2.7032   -0.0383 C.3     1  LIG1       -0.0348
     50 H          13.4469    3.1408    0.4667 H       1  LIG1        0.0279
     51 H          12.8849    2.4720   -1.0466 H       1  LIG1        0.0279
     52 H          12.3192    1.8061    0.4667 H       1  LIG1        0.0279
     53 C          12.8468    5.6566   -0.0706 C.1     1  LIG1       -0.0662
     54 C          13.8757    6.2764   -0.0841 C.1     1  LIG1       -0.1138
     55 H          14.7921    6.8286   -0.0961 H       1  LIG1        0.1232
@<TRIPOS>BOND
     1    51    49    1
     2    15    13    1
     3    27    25    1
     4    31    29    1
     5    30    29    1
     6    42    40    1
     7    41    40    1
     8    39    37    1
     9    38    37    1
    10    55    54    1
    11    54    53    3
    12    53    45    1
    13    48    46    1
    14    45    46   ar
    15    45    44   ar
    16    46    47   ar
    17    44    49    1
    18    44    43   ar
    19    49    52    1
    20    49    50    1
    21    47    43   ar
    22    43    35    1
    23    36    35   ar
    24    36    32   ar
    25    35    34   ar
    26    13     7    1
    27    13    16    1
    28    13    14    1
    29    24    22    1
    30     7     6   ar
    31     7     4   ar
    32    19    22   ar
    33    19     4    1
    34    19    17   ar
    35    22    23   ar
    36     6     8    1
    37     6     3   ar
    38     4     2   ar
    39    25    17    1
    40    25    28    1
    41    25    26    1
    42     1     2   ar
    43     1     3   ar
    44     1    10    1
    45     2     5    1
    46     3     9    1
    47    17    18   ar
    48    10    11    3
    49    23    29    1
    50    23    20   ar
    51    11    12    1
    52    18    20   ar
    53    18    21    1
    54    20    32    1
    55    32    33   ar
    56    34    33   ar
    57    34    40    1
    58    33    37    1
