@<TRIPOS>MOLECULE
mol_data/noopt/geoms/mol2/4ei4ei.out
 32 33 0 0 0
SMALL
GASTEIGER

@<TRIPOS>ATOM
      1 C           0.0509    0.0309    0.0002 C.ar    1  LIG1        0.0253
      2 C           1.4592    0.0309    0.0002 C.ar    1  LIG1       -0.0383
      3 C          -0.6045    1.2792    0.0002 C.ar    1  LIG1       -0.0461
      4 C           2.1849    1.2200   -0.0004 C.ar    1  LIG1       -0.0126
      5 H           1.9850   -0.9213    0.0004 H       1  LIG1        0.0636
      6 C           0.1195    2.4666   -0.0004 C.ar    1  LIG1       -0.0571
      7 C           1.5181    2.4458   -0.0008 C.ar    1  LIG1       -0.0426
      8 H          -0.4090    3.4165   -0.0003 H       1  LIG1        0.0621
      9 H          -1.9035    1.3287    0.0016 H       1  LIG1        0.0630
     10 C          -0.5708   -1.1108    0.0005 C.1     1  LIG1       -0.0696
     11 C          -1.1453   -2.1657    0.0008 C.1     1  LIG1       -0.1139
     12 H          -1.6571   -3.1054    0.0010 H       1  LIG1        0.1232
     13 C           2.1897    3.5592   -0.0012 C.3     1  LIG1       -0.0391
     14 H           1.6260    4.3160    0.5031 H       1  LIG1        0.0278
     15 H           2.3738    3.8644   -1.0102 H       1  LIG1        0.0278
     16 H           3.1221    3.4135    0.5030 H       1  LIG1        0.0278
     17 C           4.1518   -0.0588    0.0002 C.ar    1  LIG1        0.0324
     18 C           5.5600   -0.0451    0.0016 C.ar    1  LIG1       -0.0455
     19 C           3.4843    1.1831   -0.0005 C.ar    1  LIG1       -0.0020
     20 C           6.2742    1.1510    0.0017 C.ar    1  LIG1       -0.0576
     21 H           6.0950   -0.9922    0.0024 H       1  LIG1        0.0630
     22 C           4.1968    2.3775   -0.0004 C.ar    1  LIG1       -0.0499
     23 C           5.5955    2.3702    0.0006 C.ar    1  LIG1       -0.0498
     24 H           3.6591    3.3222   -0.0009 H       1  LIG1        0.0627
     25 H           7.5740    1.1267    0.0029 H       1  LIG1        0.0621
     26 C           3.5412   -1.2064   -0.0001 C.1     1  LIG1       -0.0691
     27 C           2.9769   -2.2669   -0.0003 C.1     1  LIG1       -0.1139
     28 H           2.4743   -3.2115   -0.0006 H       1  LIG1        0.1232
     29 C           6.2563    3.4901    0.0008 C.3     1  LIG1       -0.0397
     30 H           5.6851    4.2412    0.5053 H       1  LIG1        0.0278
     31 H           6.4376    3.7975   -1.0080 H       1  LIG1        0.0278
     32 H           7.1900    3.3532    0.5052 H       1  LIG1        0.0278
@<TRIPOS>BOND
     1    15    13    1
     2    31    29    1
     3    13     7    1
     4    13    16    1
     5    13    14    1
     6    24    22    1
     7     7     4   ar
     8     7     6   ar
     9    28    27    1
    10    19    22   ar
    11    19     4    1
    12    19    17   ar
    13    22    23   ar
    14     4     2   ar
    15     6     8    1
    16     6     3   ar
    17    27    26    3
    18    26    17    1
    19     1     3   ar
    20     1     2   ar
    21     1    10    1
    22     3     9    1
    23     2     5    1
    24    17    18   ar
    25    10    11    3
    26    23    29    1
    27    23    20   ar
    28    11    12    1
    29    29    32    1
    30    29    30    1
    31    18    20   ar
    32    18    21    1
    33    20    25    1
