@<TRIPOS>MOLECULE
mol_data/noopt/geoms/mol2/4ei4ei-.out
 32 33 0 0 0
SMALL
GASTEIGER

@<TRIPOS>ATOM
      1 C           0.0509    0.0309    0.0002 C.ar    1  LIG1        0.0253
      2 C           1.4592    0.0309    0.0002 C.ar    1  LIG1       -0.0383
      3 C          -0.6045    1.2792    0.0002 C.ar    1  LIG1       -0.0460
      4 C           2.1849    1.2200   -0.0004 C.ar    1  LIG1       -0.0133
      5 H           1.9850   -0.9213    0.0004 H       1  LIG1        0.0636
      6 C           0.1195    2.4666   -0.0004 C.ar    1  LIG1       -0.0568
      7 C           1.5181    2.4458   -0.0008 C.ar    1  LIG1       -0.0393
      8 H          -0.4090    3.4165   -0.0003 H       1  LIG1        0.0621
      9 H          -1.9035    1.3287    0.0016 H       1  LIG1        0.0630
     10 C          -0.5708   -1.1108    0.0005 C.1     1  LIG1       -0.0696
     11 C          -1.1453   -2.1657    0.0008 C.1     1  LIG1       -0.1139
     12 H          -1.6571   -3.1054    0.0010 H       1  LIG1        0.1232
     13 C           2.1897    3.5592   -0.0012 C.3     1  LIG1       -0.0231
     14 H           1.6260    4.3160    0.5031 H       1  LIG1        0.0316
     15 H           2.3738    3.8644   -1.0102 H       1  LIG1        0.0316
     16 H           3.1221    3.4135    0.5030 H       1  LIG1        0.0358
     17 C           4.2212    2.3851    0.0002 C.ar    1  LIG1       -0.0357
     18 C           5.6264    2.2916    0.0016 C.ar    1  LIG1       -0.0575
     19 C           3.4843    1.1831   -0.0005 C.ar    1  LIG1       -0.0139
     20 C           6.2715    1.0569    0.0017 C.ar    1  LIG1       -0.0585
     21 H           6.2143    3.2067    0.0024 H       1  LIG1        0.0621
     22 C           4.1278   -0.0498   -0.0004 C.ar    1  LIG1       -0.0508
     23 C           5.5247   -0.1219    0.0006 C.ar    1  LIG1       -0.0499
     24 H           3.5374   -0.9625   -0.0009 H       1  LIG1        0.0626
     25 H           7.5706    1.0074    0.0029 H       1  LIG1        0.0620
     26 C           3.6767    3.5656   -0.0001 C.3     1  LIG1       -0.0048
     27 C           3.1735    4.6563   -0.0004 C.3     1  LIG1       -0.0263
     28 H           2.7253    5.6279   -0.0006 H       1  LIG1        0.0313
     29 C           6.1209   -1.2775    0.0008 C.3     1  LIG1       -0.0397
     30 H           7.0608   -1.1938    0.5053 H       1  LIG1        0.0278
     31 H           6.2846   -1.5946   -1.0080 H       1  LIG1        0.0278
     32 H           5.5080   -1.9949    0.5052 H       1  LIG1        0.0278
@<TRIPOS>BOND
     1    15    13    1
     2    31    29    1
     3    13     7    1
     4    13    14    1
     5    24    22    1
     6     7     4   ar
     7     7     6   ar
     8    28    27    1
     9    19    22   ar
    10    19     4    1
    11    19    17   ar
    12    22    23   ar
    13     4     2   ar
    14     6     8    1
    15     6     3   ar
    16    27    26    1
    17    26    17    1
    18    26    16    1
    19    17    18   ar
    20     1     2   ar
    21     1     3   ar
    22     1    10    1
    23     2     5    1
    24     3     9    1
    25    10    11    3
    26    23    29    1
    27    23    20   ar
    28    11    12    1
    29    29    32    1
    30    29    30    1
    31    18    20   ar
    32    18    21    1
    33    20    25    1
