@<TRIPOS>MOLECULE
mol_data/noopt/geoms/mol2/4el12ii(50)6if(120)12aa(100).out
 51 53 0 0 0
SMALL
GASTEIGER

@<TRIPOS>ATOM
      1 C           0.0509    0.0309    0.0002 C.ar    1  LIG1        0.0255
      2 C           1.4592    0.0309    0.0002 C.ar    1  LIG1       -0.0351
      3 C          -0.6045    1.2792    0.0002 C.ar    1  LIG1       -0.0428
      4 C           2.1849    1.2200   -0.0004 C.ar    1  LIG1        0.0258
      5 H           1.9850   -0.9213    0.0004 H       1  LIG1        0.0637
      6 C           0.1195    2.4666   -0.0004 C.ar    1  LIG1       -0.0182
      7 C           1.5181    2.4458   -0.0008 C.ar    1  LIG1        0.1284
      8 H          -0.4090    3.4165   -0.0003 H       1  LIG1        0.0655
      9 H          -1.9035    1.3287    0.0016 H       1  LIG1        0.0631
     10 C          -0.5708   -1.1108    0.0005 C.1     1  LIG1       -0.0696
     11 C          -1.1453   -2.1657    0.0008 C.1     1  LIG1       -0.1139
     12 H          -1.6571   -3.1054    0.0010 H       1  LIG1        0.1232
     13 O           2.1896    3.5590   -0.0012 O.3     1  LIG1       -0.4880
     14 C           3.5904    3.2714   -0.0014 C.3     1  LIG1        0.1235
     15 H           4.1427    4.1879   -0.0019 H       1  LIG1        0.0731
     16 H           3.8386    2.7059    0.8724 H       1  LIG1        0.0731
     17 H           3.8381    2.7052   -0.8749 H       1  LIG1        0.2922
     18 C           3.4844    1.1831   -0.0005 C.2     1  LIG1       -0.0030
     19 C           4.4484    0.4862    0.6981 C.2     1  LIG1       -0.0357
     20 C           5.7303    0.9329    0.1938 C.2     1  LIG1       -0.0049
     21 C           5.4643    1.8735   -0.7799 C.2     1  LIG1        0.1289
     22 O           4.0865    2.0450   -0.9182 O.2     1  LIG1       -0.5058
     23 C           4.2694   -0.4021    1.6306 C.3     1  LIG1       -0.0387
     24 H           5.1481   -0.4638    2.2379 H       1  LIG1        0.0278
     25 H           4.0774   -1.3551    1.1833 H       1  LIG1        0.0278
     26 H           3.4352   -0.1186    2.2378 H       1  LIG1        0.0278
     27 C           6.8922    0.5121    0.5985 C.3     1  LIG1       -0.0360
     28 H           7.3608    1.2716    1.1888 H       1  LIG1        0.0279
     29 H           7.5061    0.2898   -0.2493 H       1  LIG1        0.0279
     30 H           6.7658   -0.3713    1.1888 H       1  LIG1        0.0279
     31 C           6.5626    2.1348   -2.8400 C.ar    1  LIG1        0.0499
     32 C           6.1807    2.6134   -1.5733 C.ar    1  LIG1        0.0412
     33 C           6.5877    3.8937   -1.1938 C.ar    1  LIG1       -0.0056
     34 C           7.3557    4.6462   -2.0841 C.ar    1  LIG1        0.1464
     35 C           7.6875    4.0805   -3.3288 C.ar    1  LIG1        0.1474
     36 N           7.3031    2.8471   -3.7113 N.ar    1  LIG1       -0.2444
     37 H           6.3094    4.3011   -0.2115 H       1  LIG1        0.0662
     38 C           6.2078    0.9490   -3.2384 C.3     1  LIG1       -0.0216
     39 H           6.9031    0.2252   -2.8676 H       1  LIG1        0.0293
     40 H           6.1991    0.9199   -4.3080 H       1  LIG1        0.0293
     41 H           5.2291    0.7262   -2.8676 H       1  LIG1        0.0293
     42 O           7.7596    5.8433   -1.7777 O.3     1  LIG1       -0.5045
     43 H           7.0016    6.4276   -1.7022 H       1  LIG1        0.2922
     44 C           8.4005    4.7418   -4.1915 C.ar    1  LIG1        0.1565
     45 C           9.2715    5.8101   -4.1346 C.ar    1  LIG1       -0.0142
     46 C           9.7281    6.0457   -5.4885 C.ar    1  LIG1       -0.0232
     47 C           9.1055    5.1052   -6.2833 C.ar    1  LIG1        0.0926
     48 O           8.2820    4.2897   -5.5065 O.2     1  LIG1       -0.4613
     49 H           9.1102    4.8139   -7.5502 H       1  LIG1        0.1029
     50 H           9.6296    6.4898   -3.0859 H       1  LIG1        0.0656
     51 H          10.5635    6.9714   -5.8560 H       1  LIG1        0.0649
@<TRIPOS>BOND
     1    49    47    1
     2    47    48   ar
     3    47    46   ar
     4    51    46    1
     5    48    44   ar
     6    46    45   ar
     7    40    38    1
     8    44    45   ar
     9    44    35    1
    10    45    50    1
    11    36    35   ar
    12    36    31   ar
    13    35    34   ar
    14    38    41    1
    15    38    39    1
    16    38    31    1
    17    31    32   ar
    18    34    42    1
    19    34    33   ar
    20    42    43    1
    21    32    33   ar
    22    32    21    1
    23    33    37    1
    24    22    17    1
    25    22    21    1
    26    21    20    2
    27    29    27    1
    28    15    14    1
    29    14    13    1
    30    14    16    1
    31    13     7    1
    32     7     6   ar
    33     7     4   ar
    34    18     4    1
    35    18    19    2
    36     6     8    1
    37     6     3   ar
    38     4     2   ar
    39     1     2   ar
    40     1     3   ar
    41     1    10    1
    42     2     5    1
    43     3     9    1
    44    10    11    3
    45    11    12    1
    46    20    27    1
    47    20    19    1
    48    27    30    1
    49    27    28    1
    50    19    23    1
    51    25    23    1
    52    23    26    1
    53    23    24    1
