@<TRIPOS>MOLECULE
mol_data/noopt/geoms/mol2/4el4el-4el-4el-.out
 66 66 0 0 0
SMALL
GASTEIGER

@<TRIPOS>ATOM
      1 C           0.0509    0.0309    0.0002 C.ar    1  LIG1        0.0255
      2 C           1.4592    0.0309    0.0002 C.ar    1  LIG1       -0.0349
      3 C          -0.6045    1.2792    0.0002 C.ar    1  LIG1       -0.0427
      4 C           2.1849    1.2200   -0.0004 C.ar    1  LIG1        0.0303
      5 H           1.9850   -0.9213    0.0004 H       1  LIG1        0.0637
      6 C           0.1195    2.4666   -0.0004 C.ar    1  LIG1       -0.0132
      7 C           1.5181    2.4458   -0.0008 C.ar    1  LIG1        0.1867
      8 H          -0.4090    3.4165   -0.0003 H       1  LIG1        0.0656
      9 H          -1.9035    1.3287    0.0016 H       1  LIG1        0.0631
     10 C          -0.5708   -1.1108    0.0005 C.1     1  LIG1       -0.0696
     11 C          -1.1453   -2.1657    0.0008 C.1     1  LIG1       -0.1139
     12 H          -1.6571   -3.1054    0.0010 H       1  LIG1        0.1232
     13 O           2.1896    3.5590   -0.0012 O.3     1  LIG1       -0.2873
     14 C           3.5904    3.2714   -0.0014 C.3     1  LIG1       -0.0091
     15 H           4.1427    4.1879   -0.0019 H       2  LIG2        0.0309
     16 H           3.8386    2.7059    0.8724 H       1  LIG1        0.0271
     17 H           3.8381    2.7052   -0.8749 H       1  LIG1        0.0271
     18 C           4.2212    2.3851    0.0002 C.3     1  LIG1       -0.0452
     19 C           5.6264    2.2916    0.0016 C.2     1  LIG1       -0.0544
     20 C           3.4843    1.1831   -0.0005 C.2     1  LIG1       -0.0074
     21 C           6.2715    1.0569    0.0017 C.2     1  LIG1       -0.0002
     22 H           6.2143    3.2067    0.0024 H       1  LIG1        0.0622
     23 C           4.1278   -0.0498   -0.0004 C.2     1  LIG1       -0.0363
     24 C           5.5247   -0.1219    0.0006 C.3     1  LIG1        0.1501
     25 H           3.5374   -0.9625   -0.0009 H       1  LIG1        0.0611
     26 C           3.6767    3.5656   -0.0001 C.3     2  LIG2       -0.0309
     27 C           3.1735    4.6563   -0.0004 C.3     2  LIG2       -0.0309
     28 H           2.7253    5.6279   -0.0006 H       2  LIG2        0.0309
     29 O           6.1208   -1.2773    0.0008 O.3     1  LIG1       -0.3643
     30 C           5.1417   -2.3195    0.0008 C.3     1  LIG1        0.0382
     31 H           5.6327   -3.2702    0.0009 H       1  LIG1        0.0524
     32 H           4.5298   -2.2340    0.8745 H       1  LIG1        0.0524
     33 H           4.5298   -2.2341   -0.8728 H       1  LIG1        0.0524
     34 C           8.3190    2.2022    0.0043 C.ar    1  LIG1        0.0330
     35 C           9.7232    2.0950    0.0071 C.ar    1  LIG1       -0.0345
     36 C           7.5705    1.0074    0.0029 C.ar    1  LIG1        0.0002
     37 C          10.3563    0.8541    0.0079 C.ar    1  LIG1        0.0263
     38 H          10.3199    3.0044    0.0084 H       1  LIG1        0.0637
     39 C           8.2020   -0.2317    0.0037 C.ar    1  LIG1       -0.0107
     40 C           9.5982   -0.3174    0.0061 C.ar    1  LIG1        0.1284
     41 H           7.6028   -1.1386    0.0026 H       1  LIG1        0.0661
     42 C           7.7859    3.3879    0.0034 C.1     1  LIG1       -0.0690
     43 C           7.2934    4.4834    0.0026 C.1     1  LIG1       -0.1139
     44 H           6.8546    5.4594    0.0019 H       1  LIG1        0.1232
     45 O          10.1830   -1.4784    0.0069 O.3     1  LIG1       -0.4945
     46 C           9.1938   -2.5111    0.0072 C.3     1  LIG1        0.0788
     47 H           9.6755   -3.4665    0.0077 H       1  LIG1        0.0660
     48 H           8.5826   -2.4194    0.8807 H       1  LIG1        0.0660
     49 H           8.5830   -2.4202   -0.8666 H       1  LIG1        0.0660
     50 C          12.4148    1.9795    0.0125 C.ar    1  LIG1        0.0327
     51 C          13.8179    1.8587    0.0167 C.ar    1  LIG1       -0.0423
     52 C          11.6548    0.7920    0.0104 C.ar    1  LIG1        0.0045
     53 C          14.4389    0.6118    0.0181 C.ar    1  LIG1       -0.0188
     54 H          14.4234    2.7623    0.0186 H       1  LIG1        0.0631
     55 C          12.2742   -0.4531    0.0118 C.ar    1  LIG1       -0.0110
     56 C          13.6695   -0.5523    0.0156 C.ar    1  LIG1        0.1207
     57 H          11.6662   -1.3542    0.0102 H       1  LIG1        0.0660
     58 H          15.7368    0.5371    0.0219 H       1  LIG1        0.0654
     59 C          11.8933    3.1703    0.0110 C.1     1  LIG1       -0.0690
     60 C          11.4114    4.2706    0.0097 C.1     1  LIG1       -0.1139
     61 H          10.9821    5.2507    0.0085 H       1  LIG1        0.1232
     62 O          14.2430   -1.7190    0.0171 O.3     1  LIG1       -0.4951
     63 C          13.2438   -2.7420    0.0176 C.3     1  LIG1        0.0788
     64 H          13.7163   -3.7021    0.0186 H       1  LIG1        0.0660
     65 H          12.6334   -2.6440    0.8909 H       1  LIG1        0.0660
     66 H          12.6342   -2.6456   -0.8564 H       1  LIG1        0.0660
@<TRIPOS>BOND
     1    17    18    1
     2    33    30    1
     3    49    46    1
     4    66    63    1
     5    15    26    1
     6    14    18    1
     7    13     7    1
     8    25    23    1
     9     7     4   ar
    10     7     6   ar
    11    28    27    1
    12    20    23    2
    13    20     4    1
    14    23    24    1
    15     4     2   ar
    16     6     8    1
    17     6     3   ar
    18    27    26    1
    19    18    16    1
    20     1     2   ar
    21     1     3   ar
    22     1    10    1
    23     2     5    1
    24     3     9    1
    25    10    11    3
    26    24    29    1
    27    24    21    1
    28    11    12    1
    29    29    30    1
    30    30    31    1
    31    30    32    1
    32    19    21    2
    33    19    22    1
    34    21    36    1
    35    44    43    1
    36    43    42    3
    37    41    39    1
    38    36    39   ar
    39    36    34   ar
    40    42    34    1
    41    39    40   ar
    42    34    35   ar
    43    40    45    1
    44    40    37   ar
    45    45    46    1
    46    35    37   ar
    47    35    38    1
    48    46    47    1
    49    46    48    1
    50    37    52    1
    51    61    60    1
    52    60    59    3
    53    57    55    1
    54    52    55   ar
    55    52    50   ar
    56    59    50    1
    57    55    56   ar
    58    50    51   ar
    59    56    62    1
    60    56    53   ar
    61    51    53   ar
    62    51    54    1
    63    62    63    1
    64    63    64    1
    65    63    65    1
    66    53    58    1
