@<TRIPOS>MOLECULE
mol_data/noopt/geoms/mol2/4el4el-4el4el-.out
 66 63 0 0 0
SMALL
GASTEIGER

@<TRIPOS>ATOM
      1 C           0.0509    0.0309    0.0002 C.ar    1  LIG1        0.0255
      2 C           1.4592    0.0309    0.0002 C.ar    1  LIG1       -0.0349
      3 C          -0.6045    1.2792    0.0002 C.ar    1  LIG1       -0.0427
      4 C           2.1849    1.2200   -0.0004 C.ar    1  LIG1        0.0303
      5 H           1.9850   -0.9213    0.0004 H       1  LIG1        0.0637
      6 C           0.1195    2.4666   -0.0004 C.ar    1  LIG1       -0.0132
      7 C           1.5181    2.4458   -0.0008 C.ar    1  LIG1        0.1867
      8 H          -0.4090    3.4165   -0.0003 H       1  LIG1        0.0656
      9 H          -1.9035    1.3287    0.0016 H       1  LIG1        0.0631
     10 C          -0.5708   -1.1108    0.0005 C.1     1  LIG1       -0.0696
     11 C          -1.1453   -2.1657    0.0008 C.1     1  LIG1       -0.1139
     12 H          -1.6571   -3.1054    0.0010 H       1  LIG1        0.1232
     13 O           2.1896    3.5590   -0.0012 O.3     1  LIG1       -0.2873
     14 C           3.5904    3.2714   -0.0014 C.3     1  LIG1       -0.0091
     15 H           4.1427    4.1879   -0.0019 H       2  LIG2        0.0309
     16 H           3.8386    2.7059    0.8724 H       1  LIG1        0.0271
     17 H           3.8381    2.7052   -0.8749 H       1  LIG1        0.0271
     18 C           4.2212    2.3851    0.0002 C.3     1  LIG1       -0.0452
     19 C           5.6264    2.2916    0.0016 C.2     1  LIG1       -0.0544
     20 C           3.4843    1.1831   -0.0005 C.2     1  LIG1       -0.0074
     21 C           6.2715    1.0569    0.0017 C.2     1  LIG1       -0.0002
     22 H           6.2143    3.2067    0.0024 H       1  LIG1        0.0622
     23 C           4.1278   -0.0498   -0.0004 C.2     1  LIG1       -0.0363
     24 C           5.5247   -0.1219    0.0006 C.3     1  LIG1        0.1501
     25 H           3.5374   -0.9625   -0.0009 H       1  LIG1        0.0611
     26 C           3.6767    3.5656   -0.0001 C.3     2  LIG2       -0.0309
     27 C           3.1735    4.6563   -0.0004 C.3     2  LIG2       -0.0309
     28 H           2.7253    5.6279   -0.0006 H       2  LIG2        0.0309
     29 O           6.1208   -1.2773    0.0008 O.3     1  LIG1       -0.3643
     30 C           5.1417   -2.3195    0.0008 C.3     1  LIG1        0.0382
     31 H           5.6327   -3.2702    0.0009 H       1  LIG1        0.0524
     32 H           4.5298   -2.2340    0.8745 H       1  LIG1        0.0524
     33 H           4.5298   -2.2341   -0.8728 H       1  LIG1        0.0524
     34 C           8.2259   -0.2409    0.0043 C.ar    1  LIG1        0.0330
     35 C           9.6342   -0.2409    0.0071 C.ar    1  LIG1       -0.0344
     36 C           7.5705    1.0074    0.0029 C.ar    1  LIG1        0.0003
     37 C          10.3599    0.9482    0.0079 C.ar    1  LIG1        0.0307
     38 H          10.1600   -1.1931    0.0084 H       1  LIG1        0.0637
     39 C           8.2945    2.1948    0.0036 C.ar    1  LIG1       -0.0057
     40 C           9.6931    2.1740    0.0060 C.ar    1  LIG1        0.1873
     41 H           7.7660    3.1447    0.0026 H       1  LIG1        0.0662
     42 C           7.6041   -1.3826    0.0034 C.1     1  LIG1       -0.0690
     43 C           7.0297   -2.4375    0.0026 C.1     1  LIG1       -0.1139
     44 H           6.5179   -3.3772    0.0019 H       1  LIG1        0.1232
     45 O          10.3646    3.2872    0.0069 O.3     1  LIG1       -0.2872
     46 C          11.7654    2.9996    0.0071 C.3     3  LIG3       -0.0091
     47 H          12.3177    3.9160    0.0077 H       4  LIG4        0.0309
     48 H          12.0131    2.4334    0.8807 H       3  LIG3        0.0271
     49 H          12.0136    2.4341   -0.8666 H       3  LIG3        0.0271
     50 C          12.3962    2.1133    0.0125 C.3     3  LIG3       -0.0452
     51 C          13.8014    2.0197    0.0167 C.3     1  LIG1       -0.0053
     52 C          11.6593    0.9113    0.0104 C.2     1  LIG1       -0.0028
     53 C          14.4465    0.7851    0.0181 C.2     1  LIG1       -0.0380
     54 H          14.3892    2.9349    0.0186 H       1  LIG1        0.0356
     55 C          12.3028   -0.3216    0.0118 C.2     1  LIG1       -0.0118
     56 C          13.6997   -0.3937    0.0156 C.2     1  LIG1        0.1171
     57 H          11.7124   -1.2343    0.0102 H       1  LIG1        0.0660
     58 H          15.7455    0.7356    0.0219 H       1  LIG1        0.0611
     59 C          11.8516    3.2937    0.0110 C.3     4  LIG4       -0.0309
     60 C          11.3485    4.3845    0.0097 C.3     4  LIG4       -0.0309
     61 H          10.9003    5.3561    0.0085 H       4  LIG4        0.0309
     62 O          14.2958   -1.5491    0.0171 O.2     1  LIG1       -0.4954
     63 C          13.3166   -2.5913    0.0176 C.3     1  LIG1        0.0788
     64 H          13.8076   -3.5420    0.0186 H       1  LIG1        0.0660
     65 H          12.7044   -2.5051    0.8909 H       1  LIG1        0.0660
     66 H          12.7052   -2.5067   -0.8564 H       1  LIG1        0.0660
@<TRIPOS>BOND
     1    17    18    1
     2    33    30    1
     3    49    50    1
     4    66    63    1
     5    15    26    1
     6    14    18    1
     7    13     7    1
     8    25    23    1
     9     7     4   ar
    10     7     6   ar
    11    28    27    1
    12    20    23    2
    13    20     4    1
    14    23    24    1
    15     4     2   ar
    16     6     8    1
    17     6     3   ar
    18    27    26    1
    19    18    16    1
    20     1     2   ar
    21     1     3   ar
    22     1    10    1
    23     2     5    1
    24     3     9    1
    25    10    11    3
    26    24    29    1
    27    24    21    1
    28    11    12    1
    29    29    30    1
    30    30    31    1
    31    30    32    1
    32    19    21    2
    33    19    22    1
    34    21    36    1
    35    44    43    1
    36    41    39    1
    37    43    42    3
    38    36    39   ar
    39    36    34   ar
    40    42    34    1
    41    39    40   ar
    42    34    35   ar
    43    40    45    1
    44    40    37   ar
    45    35    37   ar
    46    35    38    1
    47    46    50    1
    48    47    59    1
    49    37    52    1
    50    61    60    1
    51    60    59    1
    52    57    55    1
    53    52    55    2
    54    55    56    1
    55    50    48    1
    56    56    62    1
    57    56    53    2
    58    51    53    1
    59    51    54    1
    60    62    63    1
    61    63    64    1
    62    63    65    1
    63    53    58    1
