@<TRIPOS>MOLECULE
mol_data/noopt/geoms/mol2/4el4el.out
 34 32 0 0 0
SMALL
GASTEIGER

@<TRIPOS>ATOM
      1 C           0.0509    0.0309    0.0002 C.ar    1  LIG1        0.0255
      2 C           1.4592    0.0309    0.0002 C.ar    1  LIG1       -0.0349
      3 C          -0.6045    1.2792    0.0002 C.ar    1  LIG1       -0.0427
      4 C           2.1849    1.2200   -0.0004 C.ar    1  LIG1        0.0314
      5 H           1.9850   -0.9213    0.0004 H       1  LIG1        0.0637
      6 C           0.1195    2.4666   -0.0004 C.ar    1  LIG1       -0.0132
      7 C           1.5181    2.4458   -0.0008 C.ar    1  LIG1        0.1867
      8 H          -0.4090    3.4165   -0.0003 H       1  LIG1        0.0656
      9 H          -1.9035    1.3287    0.0016 H       1  LIG1        0.0631
     10 C          -0.5708   -1.1108    0.0005 C.1     1  LIG1       -0.0696
     11 C          -1.1453   -2.1657    0.0008 C.1     1  LIG1       -0.1139
     12 H          -1.6571   -3.1054    0.0010 H       1  LIG1        0.1232
     13 O           2.1896    3.5590   -0.0012 O.3     1  LIG1       -0.2873
     14 C           3.5904    3.2714   -0.0014 C.3     1  LIG1       -0.0348
     15 H           4.1427    4.1879   -0.0019 H       1  LIG1        0.0306
     16 H           3.8386    2.7059    0.8724 H       1  LIG1        0.0268
     17 H           3.8381    2.7052   -0.8749 H       1  LIG1        0.0268
     18 C           4.1518   -0.0588    0.0002 C.2     1  LIG1        0.0185
     19 C           5.5600   -0.0451    0.0016 C.3     1  LIG1        0.0254
     20 C           3.4843    1.1831   -0.0005 C.2     1  LIG1        0.0065
     21 C           6.2742    1.1510    0.0017 C.2     1  LIG1       -0.0297
     22 H           6.0950   -0.9922    0.0024 H       1  LIG1        0.0408
     23 C           4.1968    2.3775   -0.0004 C.3     1  LIG1       -0.0494
     24 C           5.5955    2.3702    0.0006 C.2     1  LIG1        0.1579
     25 H           3.6591    3.3222   -0.0009 H       2  UNK2        0.0000
     26 H           7.5740    1.1267    0.0029 H       1  LIG1        0.0616
     27 C           3.5412   -1.2064   -0.0001 C.1     1  LIG1       -0.0728
     28 C           2.9769   -2.2669   -0.0003 C.1     1  LIG1       -0.1142
     29 H           2.4743   -3.2115   -0.0006 H       1  LIG1        0.1231
     30 O           6.2562    3.4899    0.0008 O.2     1  LIG1       -0.4918
     31 C           7.6597    3.2159    0.0008 C.3     1  LIG1        0.0789
     32 H           8.2031    4.1377    0.0008 H       1  LIG1        0.0660
     33 H           7.9131    2.6525    0.8745 H       1  LIG1        0.0660
     34 H           7.9131    2.6525   -0.8728 H       1  LIG1        0.0660
@<TRIPOS>BOND
     1    17    23    1
     2    34    31    1
     3    15    14    1
     4    14    23    1
     5    13     7    1
     6     7     4   ar
     7     7     6   ar
     8    29    28    1
     9    20     4    1
    10    20    18    2
    11    23    16    1
    12     4     2   ar
    13     6     8    1
    14     6     3   ar
    15    28    27    3
    16    27    18    1
    17     1     2   ar
    18     1     3   ar
    19     1    10    1
    20     2     5    1
    21     3     9    1
    22    18    19    1
    23    10    11    3
    24    24    30    1
    25    24    21    2
    26    11    12    1
    27    30    31    1
    28    31    32    1
    29    31    33    1
    30    19    21    1
    31    19    22    1
    32    21    26    1
