@<TRIPOS>MOLECULE
mol_data/noopt/geoms/mol2/4el4el4el4el.out
 66 60 0 0 0
SMALL
GASTEIGER

@<TRIPOS>ATOM
      1 C           0.0509    0.0309    0.0002 C.ar    1  LIG1        0.0255
      2 C           1.4592    0.0309    0.0002 C.ar    1  LIG1       -0.0349
      3 C          -0.6045    1.2792    0.0002 C.ar    1  LIG1       -0.0427
      4 C           2.1849    1.2200   -0.0004 C.ar    1  LIG1        0.0314
      5 H           1.9850   -0.9213    0.0004 H       1  LIG1        0.0637
      6 C           0.1195    2.4666   -0.0004 C.ar    1  LIG1       -0.0132
      7 C           1.5181    2.4458   -0.0008 C.ar    1  LIG1        0.1867
      8 H          -0.4090    3.4165   -0.0003 H       1  LIG1        0.0656
      9 H          -1.9035    1.3287    0.0016 H       1  LIG1        0.0631
     10 C          -0.5708   -1.1108    0.0005 C.1     1  LIG1       -0.0696
     11 C          -1.1453   -2.1657    0.0008 C.1     1  LIG1       -0.1139
     12 H          -1.6571   -3.1054    0.0010 H       1  LIG1        0.1232
     13 O           2.1896    3.5590   -0.0012 O.3     1  LIG1       -0.2873
     14 C           3.5904    3.2714   -0.0014 C.3     1  LIG1       -0.0348
     15 H           4.1427    4.1879   -0.0019 H       1  LIG1        0.0306
     16 H           3.8386    2.7059    0.8724 H       1  LIG1        0.0268
     17 H           3.8381    2.7052   -0.8749 H       1  LIG1        0.0268
     18 C           4.1518   -0.0588    0.0002 C.2     1  LIG1        0.0188
     19 C           5.5600   -0.0451    0.0016 C.3     1  LIG1        0.0287
     20 C           3.4843    1.1831   -0.0005 C.2     1  LIG1        0.0065
     21 C           6.2742    1.1510    0.0017 C.2     1  LIG1       -0.0106
     22 H           6.0950   -0.9922    0.0024 H       1  LIG1        0.0411
     23 C           4.1968    2.3775   -0.0004 C.3     1  LIG1       -0.0494
     24 C           5.5955    2.3702    0.0006 C.3     1  LIG1        0.2044
     25 H           3.6591    3.3222   -0.0009 H       2  UNK2        0.0000
     26 C           3.5412   -1.2064   -0.0001 C.1     1  LIG1       -0.0728
     27 C           2.9769   -2.2669   -0.0003 C.1     1  LIG1       -0.1142
     28 H           2.4743   -3.2115   -0.0006 H       1  LIG1        0.1231
     29 O           6.2562    3.4899    0.0008 O.3     1  LIG1       -0.2155
     30 C           7.6597    3.2159    0.0008 C.3     2  UNK2       -0.0348
     31 H           8.2031    4.1377    0.0008 H       2  UNK2        0.0306
     32 H           7.9131    2.6525    0.8745 H       2  UNK2        0.0268
     33 H           7.9131    2.6525   -0.8728 H       2  UNK2        0.0268
     34 C           8.2534   -0.1087    0.0043 C.2     1  LIG1        0.0329
     35 C           9.6614   -0.0814    0.0071 C.2     1  LIG1       -0.0389
     36 C           7.5739    1.1267    0.0029 C.2     1  LIG1        0.0016
     37 C          10.3639    1.1216    0.0079 C.2     1  LIG1        0.0040
     38 H          10.2056   -1.0232    0.0084 H       1  LIG1        0.0634
     39 C           8.2747    2.3279    0.0036 C.3     2  UNK2       -0.0494
     40 C           9.6734    2.3342    0.0060 C.3     1  LIG1        0.2080
     41 H           7.7279    3.2674    0.0026 H       3  UNK3        0.0000
     42 C           7.6539   -1.2622    0.0034 C.1     1  LIG1       -0.0690
     43 C           7.1000   -2.3281    0.0026 C.1     1  LIG1       -0.1139
     44 H           6.6066   -3.2775    0.0019 H       1  LIG1        0.1232
     45 O          10.3232    3.4602    0.0069 O.3     1  LIG1       -0.2152
     46 C          11.7293    3.1999    0.0071 C.3     3  UNK3       -0.0348
     47 H          12.2637    4.1269    0.0077 H       3  UNK3        0.0306
     48 H          11.9880    2.6386    0.8807 H       3  UNK3        0.0268
     49 H          11.9884    2.6393   -0.8666 H       3  UNK3        0.0268
     50 C          12.3552   -0.1188    0.0125 C.2     1  LIG1        0.0329
     51 C          13.7629   -0.0778    0.0167 C.2     1  LIG1       -0.0422
     52 C          11.6638    1.1099    0.0104 C.2     1  LIG1        0.0053
     53 C          14.4537    1.1319    0.0181 C.2     1  LIG1       -0.0151
     54 H          14.3162   -1.0143    0.0186 H       1  LIG1        0.0631
     55 C          12.3529    2.3179    0.0118 C.3     3  UNK3       -0.0494
     56 C          13.7515    2.3378    0.0156 C.2     1  LIG1        0.1615
     57 H          11.7970    3.2520    0.0102 H       4  UNK4        0.0000
     58 H          15.7537    1.1328    0.0219 H       1  LIG1        0.0656
     59 C          11.7670   -1.2781    0.0110 C.1     1  LIG1       -0.0690
     60 C          11.2234   -2.3493    0.0097 C.1     1  LIG1       -0.1139
     61 H          10.7392   -3.3034    0.0085 H       1  LIG1        0.1232
     62 O          14.3904    3.4700    0.0171 O.2     1  LIG1       -0.4915
     63 C          15.7989    3.2233    0.0176 C.3     1  LIG1        0.0790
     64 H          16.3243    4.1555    0.0186 H       1  LIG1        0.0660
     65 H          16.0628    2.6642    0.8909 H       1  LIG1        0.0660
     66 H          16.0637    2.6657   -0.8564 H       1  LIG1        0.0660
@<TRIPOS>BOND
     1    17    23    1
     2    33    39    1
     3    49    55    1
     4    66    63    1
     5    15    14    1
     6    14    23    1
     7    13     7    1
     8     7     4   ar
     9     7     6   ar
    10    28    27    1
    11    20     4    1
    12    20    18    2
    13    23    16    1
    14     4     2   ar
    15     6     8    1
    16     6     3   ar
    17    27    26    3
    18    26    18    1
    19     1     2   ar
    20     1     3   ar
    21     1    10    1
    22     2     5    1
    23     3     9    1
    24    18    19    1
    25    10    11    3
    26    24    29    1
    27    24    21    1
    28    11    12    1
    29    30    31    1
    30    30    39    1
    31    19    21    1
    32    19    22    1
    33    21    36    2
    34    44    43    1
    35    43    42    3
    36    36    34    1
    37    42    34    1
    38    39    32    1
    39    34    35    2
    40    40    45    1
    41    40    37    1
    42    35    37    1
    43    35    38    1
    44    46    47    1
    45    46    55    1
    46    37    52    2
    47    61    60    1
    48    60    59    3
    49    52    50    1
    50    59    50    1
    51    55    48    1
    52    50    51    2
    53    56    62    1
    54    56    53    2
    55    51    53    1
    56    51    54    1
    57    62    63    1
    58    63    64    1
    59    63    65    1
    60    53    58    1
