@<TRIPOS>MOLECULE
mol_data/noopt/geoms/mol2/4el4el4el-4el-.out
 66 63 0 0 0
SMALL
GASTEIGER

@<TRIPOS>ATOM
      1 C           0.0509    0.0309    0.0002 C.ar    1  LIG1        0.0255
      2 C           1.4592    0.0309    0.0002 C.ar    1  LIG1       -0.0349
      3 C          -0.6045    1.2792    0.0002 C.ar    1  LIG1       -0.0427
      4 C           2.1849    1.2200   -0.0004 C.ar    1  LIG1        0.0314
      5 H           1.9850   -0.9213    0.0004 H       1  LIG1        0.0637
      6 C           0.1195    2.4666   -0.0004 C.ar    1  LIG1       -0.0132
      7 C           1.5181    2.4458   -0.0008 C.ar    1  LIG1        0.1867
      8 H          -0.4090    3.4165   -0.0003 H       1  LIG1        0.0656
      9 H          -1.9035    1.3287    0.0016 H       1  LIG1        0.0631
     10 C          -0.5708   -1.1108    0.0005 C.1     1  LIG1       -0.0696
     11 C          -1.1453   -2.1657    0.0008 C.1     1  LIG1       -0.1139
     12 H          -1.6571   -3.1054    0.0010 H       1  LIG1        0.1232
     13 O           2.1896    3.5590   -0.0012 O.3     1  LIG1       -0.2873
     14 C           3.5904    3.2714   -0.0014 C.3     1  LIG1       -0.0348
     15 H           4.1427    4.1879   -0.0019 H       1  LIG1        0.0306
     16 H           3.8386    2.7059    0.8724 H       1  LIG1        0.0268
     17 H           3.8381    2.7052   -0.8749 H       1  LIG1        0.0268
     18 C           4.1518   -0.0588    0.0002 C.2     1  LIG1        0.0188
     19 C           5.5600   -0.0451    0.0016 C.3     1  LIG1        0.0287
     20 C           3.4843    1.1831   -0.0005 C.2     1  LIG1        0.0065
     21 C           6.2742    1.1510    0.0017 C.2     1  LIG1       -0.0117
     22 H           6.0950   -0.9922    0.0024 H       1  LIG1        0.0411
     23 C           4.1968    2.3775   -0.0004 C.3     1  LIG1       -0.0494
     24 C           5.5955    2.3702    0.0006 C.3     1  LIG1        0.2044
     25 H           3.6591    3.3222   -0.0009 H       2  UNK2        0.0000
     26 C           3.5412   -1.2064   -0.0001 C.1     1  LIG1       -0.0728
     27 C           2.9769   -2.2669   -0.0003 C.1     1  LIG1       -0.1142
     28 H           2.4743   -3.2115   -0.0006 H       1  LIG1        0.1231
     29 O           6.2562    3.4899    0.0008 O.3     1  LIG1       -0.2155
     30 C           7.6597    3.2159    0.0008 C.3     2  UNK2       -0.0091
     31 H           8.2031    4.1377    0.0008 H       3  LIG3        0.0309
     32 H           7.9131    2.6525    0.8745 H       2  UNK2        0.0271
     33 H           7.9131    2.6525   -0.8728 H       2  UNK2        0.0271
     34 C           8.2991    2.3358    0.0043 C.3     2  UNK2       -0.0452
     35 C           9.7051    2.2559    0.0071 C.2     1  LIG1       -0.0498
     36 C           7.5739    1.1267    0.0029 C.2     1  LIG1       -0.0113
     37 C          10.3621    1.0275    0.0079 C.2     1  LIG1        0.0251
     38 H          10.2841    3.1767    0.0084 H       1  LIG1        0.0625
     39 C           8.2293   -0.0999    0.0037 C.2     1  LIG1       -0.0116
     40 C           9.6269   -0.1585    0.0061 C.2     1  LIG1        0.1284
     41 H           7.6478   -1.0183    0.0026 H       1  LIG1        0.0660
     42 C           7.7431    3.5109    0.0034 C.3     3  LIG3       -0.0309
     43 C           7.2294    4.5967    0.0026 C.3     3  LIG3       -0.0309
     44 H           6.7718    5.5639    0.0019 H       3  LIG3        0.0309
     45 O          10.2341   -1.3080    0.0069 O.2     1  LIG1       -0.4945
     46 C           9.2651   -2.3597    0.0072 C.3     1  LIG1        0.0788
     47 H           9.7653   -3.3056    0.0077 H       1  LIG1        0.0660
     48 H           8.6523   -2.2798    0.8807 H       1  LIG1        0.0660
     49 H           8.6527   -2.2806   -0.8666 H       1  LIG1        0.0660
     50 C          12.3984    2.1926    0.0125 C.ar    1  LIG1        0.0327
     51 C          13.8036    2.0991    0.0167 C.ar    1  LIG1       -0.0423
     52 C          11.6616    0.9906    0.0104 C.ar    1  LIG1        0.0044
     53 C          14.4487    0.8644    0.0181 C.ar    1  LIG1       -0.0188
     54 H          14.3915    3.0142    0.0186 H       1  LIG1        0.0631
     55 C          12.3051   -0.2423    0.0118 C.ar    1  LIG1       -0.0110
     56 C          13.7020   -0.3144    0.0156 C.ar    1  LIG1        0.1207
     57 H          11.7147   -1.1550    0.0102 H       1  LIG1        0.0660
     58 H          15.7478    0.8149    0.0219 H       1  LIG1        0.0654
     59 C          11.8539    3.3731    0.0110 C.1     1  LIG1       -0.0690
     60 C          11.3507    4.4638    0.0097 C.1     1  LIG1       -0.1139
     61 H          10.9026    5.4354    0.0085 H       1  LIG1        0.1232
     62 O          14.2980   -1.4698    0.0171 O.3     1  LIG1       -0.4951
     63 C          13.3189   -2.5120    0.0176 C.3     1  LIG1        0.0788
     64 H          13.8099   -3.4627    0.0186 H       1  LIG1        0.0660
     65 H          12.7066   -2.4258    0.8909 H       1  LIG1        0.0660
     66 H          12.7074   -2.4274   -0.8564 H       1  LIG1        0.0660
@<TRIPOS>BOND
     1    17    23    1
     2    33    34    1
     3    49    46    1
     4    66    63    1
     5    15    14    1
     6    14    23    1
     7    13     7    1
     8     7     4   ar
     9     7     6   ar
    10    28    27    1
    11    20     4    1
    12    20    18    2
    13    23    16    1
    14     4     2   ar
    15     6     8    1
    16     6     3   ar
    17    27    26    3
    18    26    18    1
    19     1     2   ar
    20     1     3   ar
    21     1    10    1
    22     2     5    1
    23     3     9    1
    24    18    19    1
    25    10    11    3
    26    24    29    1
    27    24    21    1
    28    11    12    1
    29    30    34    1
    30    31    42    1
    31    19    21    1
    32    19    22    1
    33    21    36    2
    34    44    43    1
    35    43    42    1
    36    41    39    1
    37    36    39    1
    38    39    40    2
    39    34    32    1
    40    40    45    1
    41    40    37    1
    42    45    46    1
    43    35    37    2
    44    35    38    1
    45    46    47    1
    46    46    48    1
    47    37    52    1
    48    61    60    1
    49    60    59    3
    50    57    55    1
    51    52    55   ar
    52    52    50   ar
    53    59    50    1
    54    55    56   ar
    55    50    51   ar
    56    56    62    1
    57    56    53   ar
    58    51    53   ar
    59    51    54    1
    60    62    63    1
    61    63    64    1
    62    63    65    1
    63    53    58    1
