@<TRIPOS>MOLECULE
mol_data/noopt/geoms/mol2/4el4el-.out
 34 32 0 0 0
SMALL
GASTEIGER

@<TRIPOS>ATOM
      1 C           0.0509    0.0309    0.0002 C.ar    1  LIG1        0.0255
      2 C           1.4592    0.0309    0.0002 C.ar    1  LIG1       -0.0349
      3 C          -0.6045    1.2792    0.0002 C.ar    1  LIG1       -0.0427
      4 C           2.1849    1.2200   -0.0004 C.ar    1  LIG1        0.0306
      5 H           1.9850   -0.9213    0.0004 H       1  LIG1        0.0637
      6 C           0.1195    2.4666   -0.0004 C.ar    1  LIG1       -0.0132
      7 C           1.5181    2.4458   -0.0008 C.ar    1  LIG1        0.1867
      8 H          -0.4090    3.4165   -0.0003 H       1  LIG1        0.0656
      9 H          -1.9035    1.3287    0.0016 H       1  LIG1        0.0631
     10 C          -0.5708   -1.1108    0.0005 C.1     1  LIG1       -0.0696
     11 C          -1.1453   -2.1657    0.0008 C.1     1  LIG1       -0.1139
     12 H          -1.6571   -3.1054    0.0010 H       1  LIG1        0.1232
     13 O           2.1896    3.5590   -0.0012 O.3     1  LIG1       -0.2873
     14 C           3.5904    3.2714   -0.0014 C.3     1  LIG1       -0.0091
     15 H           4.1427    4.1879   -0.0019 H       2  LIG2        0.0309
     16 H           3.8386    2.7059    0.8724 H       1  LIG1        0.0271
     17 H           3.8381    2.7052   -0.8749 H       1  LIG1        0.0271
     18 C           4.2212    2.3851    0.0002 C.3     1  LIG1       -0.0452
     19 C           5.6264    2.2916    0.0016 C.3     1  LIG1       -0.0053
     20 C           3.4843    1.1831   -0.0005 C.2     1  LIG1       -0.0028
     21 C           6.2715    1.0569    0.0017 C.2     1  LIG1       -0.0380
     22 H           6.2143    3.2067    0.0024 H       1  LIG1        0.0356
     23 C           4.1278   -0.0498   -0.0004 C.2     1  LIG1       -0.0118
     24 C           5.5247   -0.1219    0.0006 C.2     1  LIG1        0.1171
     25 H           3.5374   -0.9625   -0.0009 H       1  LIG1        0.0660
     26 H           7.5706    1.0074    0.0029 H       1  LIG1        0.0611
     27 C           3.6767    3.5656   -0.0001 C.3     2  LIG2       -0.0309
     28 C           3.1735    4.6563   -0.0004 C.3     2  LIG2       -0.0309
     29 H           2.7253    5.6279   -0.0006 H       2  LIG2        0.0309
     30 O           6.1208   -1.2773    0.0008 O.2     1  LIG1       -0.4954
     31 C           5.1417   -2.3195    0.0008 C.3     1  LIG1        0.0788
     32 H           5.6327   -3.2702    0.0009 H       1  LIG1        0.0660
     33 H           4.5298   -2.2340    0.8745 H       1  LIG1        0.0660
     34 H           4.5298   -2.2341   -0.8728 H       1  LIG1        0.0660
@<TRIPOS>BOND
     1    17    18    1
     2    34    31    1
     3    15    27    1
     4    14    18    1
     5    13     7    1
     6    25    23    1
     7     7     4   ar
     8     7     6   ar
     9    29    28    1
    10    20    23    2
    11    20     4    1
    12    23    24    1
    13     4     2   ar
    14     6     8    1
    15     6     3   ar
    16    28    27    1
    17    18    16    1
    18     1     2   ar
    19     1     3   ar
    20     1    10    1
    21     2     5    1
    22     3     9    1
    23    10    11    3
    24    24    30    1
    25    24    21    2
    26    11    12    1
    27    30    31    1
    28    31    32    1
    29    31    33    1
    30    19    21    1
    31    19    22    1
    32    21    26    1
