@<TRIPOS>MOLECULE
mol_data/noopt/geoms/mol2/4el4el-4el.out
 50 49 0 0 0
SMALL
GASTEIGER

@<TRIPOS>ATOM
      1 C           0.0509    0.0309    0.0002 C.ar    1  LIG1        0.0255
      2 C           1.4592    0.0309    0.0002 C.ar    1  LIG1       -0.0349
      3 C          -0.6045    1.2792    0.0002 C.ar    1  LIG1       -0.0427
      4 C           2.1849    1.2200   -0.0004 C.ar    1  LIG1        0.0303
      5 H           1.9850   -0.9213    0.0004 H       1  LIG1        0.0637
      6 C           0.1195    2.4666   -0.0004 C.ar    1  LIG1       -0.0132
      7 C           1.5181    2.4458   -0.0008 C.ar    1  LIG1        0.1867
      8 H          -0.4090    3.4165   -0.0003 H       1  LIG1        0.0656
      9 H          -1.9035    1.3287    0.0016 H       1  LIG1        0.0631
     10 C          -0.5708   -1.1108    0.0005 C.1     1  LIG1       -0.0696
     11 C          -1.1453   -2.1657    0.0008 C.1     1  LIG1       -0.1139
     12 H          -1.6571   -3.1054    0.0010 H       1  LIG1        0.1232
     13 O           2.1896    3.5590   -0.0012 O.3     1  LIG1       -0.2873
     14 C           3.5904    3.2714   -0.0014 C.3     1  LIG1       -0.0091
     15 H           4.1427    4.1879   -0.0019 H       2  LIG2        0.0309
     16 H           3.8386    2.7059    0.8724 H       1  LIG1        0.0271
     17 H           3.8381    2.7052   -0.8749 H       1  LIG1        0.0271
     18 C           4.2212    2.3851    0.0002 C.3     1  LIG1       -0.0452
     19 C           5.6264    2.2916    0.0016 C.2     1  LIG1       -0.0544
     20 C           3.4843    1.1831   -0.0005 C.2     1  LIG1       -0.0074
     21 C           6.2715    1.0569    0.0017 C.2     1  LIG1       -0.0002
     22 H           6.2143    3.2067    0.0024 H       1  LIG1        0.0622
     23 C           4.1278   -0.0498   -0.0004 C.2     1  LIG1       -0.0363
     24 C           5.5247   -0.1219    0.0006 C.3     1  LIG1        0.1501
     25 H           3.5374   -0.9625   -0.0009 H       1  LIG1        0.0611
     26 C           3.6767    3.5656   -0.0001 C.3     2  LIG2       -0.0309
     27 C           3.1735    4.6563   -0.0004 C.3     2  LIG2       -0.0309
     28 H           2.7253    5.6279   -0.0006 H       2  LIG2        0.0309
     29 O           6.1208   -1.2773    0.0008 O.3     1  LIG1       -0.3643
     30 C           5.1417   -2.3195    0.0008 C.3     1  LIG1        0.0382
     31 H           5.6327   -3.2702    0.0009 H       1  LIG1        0.0524
     32 H           4.5298   -2.2340    0.8745 H       1  LIG1        0.0524
     33 H           4.5298   -2.2341   -0.8728 H       1  LIG1        0.0524
     34 C           8.2259   -0.2409    0.0043 C.ar    1  LIG1        0.0324
     35 C           9.6342   -0.2409    0.0071 C.ar    1  LIG1       -0.0423
     36 C           7.5705    1.0074    0.0029 C.ar    1  LIG1        0.0001
     37 C          10.3599    0.9482    0.0079 C.ar    1  LIG1       -0.0188
     38 H          10.1600   -1.1931    0.0084 H       1  LIG1        0.0631
     39 C           8.2945    2.1948    0.0036 C.ar    1  LIG1       -0.0113
     40 C           9.6931    2.1740    0.0060 C.ar    1  LIG1        0.1207
     41 H           7.7660    3.1447    0.0026 H       1  LIG1        0.0660
     42 H          11.6594    0.9113    0.0104 H       1  LIG1        0.0654
     43 C           7.6041   -1.3826    0.0034 C.1     1  LIG1       -0.0691
     44 C           7.0297   -2.4375    0.0026 C.1     1  LIG1       -0.1139
     45 H           6.5179   -3.3772    0.0019 H       1  LIG1        0.1232
     46 O          10.3646    3.2872    0.0069 O.3     1  LIG1       -0.4951
     47 C          11.7654    2.9996    0.0071 C.3     1  LIG1        0.0788
     48 H          12.3177    3.9160    0.0077 H       1  LIG1        0.0660
     49 H          12.0131    2.4334    0.8807 H       1  LIG1        0.0660
     50 H          12.0136    2.4341   -0.8666 H       1  LIG1        0.0660
@<TRIPOS>BOND
     1    17    18    1
     2    33    30    1
     3    50    47    1
     4    15    26    1
     5    14    18    1
     6    13     7    1
     7    25    23    1
     8     7     4   ar
     9     7     6   ar
    10    28    27    1
    11    20    23    2
    12    20     4    1
    13    23    24    1
    14     4     2   ar
    15     6     8    1
    16     6     3   ar
    17    27    26    1
    18    18    16    1
    19     3     1   ar
    20     3     9    1
    21     1     2   ar
    22     1    10    1
    23     2     5    1
    24    10    11    3
    25    24    29    1
    26    24    21    1
    27    11    12    1
    28    29    30    1
    29    30    31    1
    30    30    32    1
    31    19    21    2
    32    19    22    1
    33    21    36    1
    34    45    44    1
    35    41    39    1
    36    44    43    3
    37    36    39   ar
    38    36    34   ar
    39    43    34    1
    40    39    40   ar
    41    34    35   ar
    42    40    46    1
    43    40    37   ar
    44    46    47    1
    45    35    37   ar
    46    35    38    1
    47    47    48    1
    48    47    49    1
    49    37    42    1
