@<TRIPOS>MOLECULE
mol_data/noopt/geoms/mol2/4fa.out
 13 13 0 0 0
SMALL
GASTEIGER

@<TRIPOS>ATOM
      1 C           0.0509    0.0309    0.0002 C.ar    1  LIG1        0.1169
      2 C           1.4592    0.0309    0.0002 C.ar    1  LIG1       -0.0202
      3 C          -0.6045    1.2792    0.0002 C.ar    1  LIG1       -0.0202
      4 C           2.1849    1.2200   -0.0004 C.ar    1  LIG1       -0.0583
      5 H           1.9850   -0.9213    0.0004 H       1  LIG1        0.0654
      6 C           0.1195    2.4666   -0.0004 C.ar    1  LIG1       -0.0583
      7 C           1.5181    2.4458   -0.0008 C.ar    1  LIG1       -0.0615
      8 H          -0.4090    3.4165   -0.0003 H       1  LIG1        0.0619
      9 H           3.4844    1.1831   -0.0005 H       1  LIG1        0.0619
     10 H          -1.9035    1.3287    0.0016 H       1  LIG1        0.0654
     11 O          -0.5709   -1.1108    0.0005 O.3     1  LIG1       -0.5068
     12 H           0.0706   -1.8250    0.0006 H       1  LIG1        0.2921
     13 H           2.1896    3.5590   -0.0012 H       1  LIG1        0.0618
@<TRIPOS>BOND
     1    13     7    1
     2     7     4   ar
     3     7     6   ar
     4     9     4    1
     5     4     2   ar
     6     6     8    1
     7     6     3   ar
     8     1     2   ar
     9     1     3   ar
    10     1    11    1
    11     2     5    1
    12     3    10    1
    13    11    12    1
