@<TRIPOS>MOLECULE
mol_data/noopt/geoms/mol2/4fa13ee-13de-12hh-.out
 47 51 0 0 0
SMALL
GASTEIGER

@<TRIPOS>ATOM
      1 C           0.0509    0.0309    0.0002 C.ar    1  LIG1        0.1175
      2 C           1.4592    0.0309    0.0002 C.ar    1  LIG1       -0.0112
      3 C          -0.6045    1.2792    0.0002 C.ar    1  LIG1       -0.0201
      4 C           2.1849    1.2200   -0.0004 C.ar    1  LIG1        0.0005
      5 H           1.9850   -0.9213    0.0004 H       1  LIG1        0.0660
      6 C           0.1195    2.4666   -0.0004 C.ar    1  LIG1       -0.0577
      7 C           1.5181    2.4458   -0.0008 C.ar    1  LIG1       -0.0526
      8 H          -0.4090    3.4165   -0.0003 H       1  LIG1        0.0619
      9 H          -1.9035    1.3287    0.0016 H       1  LIG1        0.0654
     10 O          -0.5709   -1.1108    0.0005 O.3     1  LIG1       -0.5067
     11 H           0.0706   -1.8250    0.0006 H       1  LIG1        0.2921
     12 H           2.1896    3.5590   -0.0012 H       1  LIG1        0.0624
     13 C           3.4844    1.1831   -0.0005 C.2     1  LIG1        0.0520
     14 C           4.3366    0.1241    0.0157 C.2     1  LIG1        0.0594
     15 C           5.6695    0.6477    0.0079 C.2     1  LIG1        0.0449
     16 C           5.5731    2.0035   -0.0145 C.3     1  LIG1        0.1381
     17 N           4.2371    2.3356   -0.0192 N.pl3   1  LIG1       -0.3252
     18 H           3.8736    3.2606   -0.0344 H       1  LIG1        0.1474
     19 C           3.9999   -1.1313    0.0361 C.1     1  LIG1       -0.0668
     20 C           3.6887   -2.2914    0.0550 C.1     1  LIG1       -0.1138
     21 H           3.4116   -3.3247    0.0718 H       1  LIG1        0.1232
     22 C           6.7708   -0.0429    0.0195 C.1     1  LIG1       -0.0957
     23 C           7.7885   -0.6810    0.0302 C.2     1  LIG1        0.0549
     24 H           8.6950   -1.2494    0.0398 H       1  LIG1        0.0888
     25 C           6.5000    2.9149   -0.0291 C.ar    1  LIG1        0.0549
     26 C           7.8541    2.7957   -0.0393 C.ar    1  LIG1        0.0219
     27 C           8.3999    4.1195   -0.0528 C.ar    1  LIG1        0.0588
     28 C           7.3554    4.9895   -0.0519 C.ar    1  LIG1        0.1001
     29 N           6.1903    4.2563   -0.0370 N.ar    1  LIG1       -0.3522
     30 H           5.2714    4.6352   -0.0331 H       1  LIG1        0.1658
     31 N           9.1190    0.7015   -0.0328 N.pl3   1  LIG1       -0.2335
     32 C           8.5262    1.6829   -0.0359 C.3     1  LIG1        0.1403
     33 C           9.6610    4.4351   -0.0642 C.1     1  LIG1       -0.0671
     34 C          10.8262    4.7267   -0.0748 C.1     1  LIG1       -0.1138
     35 H          11.8641    4.9865   -0.0842 H       1  LIG1        0.1232
     36 C           7.3402    6.2894   -0.0615 C.ar    1  LIG1        0.1744
     37 C           8.2960    7.2840   -0.0539 C.ar    1  LIG1        0.0934
     38 C           7.5832    8.5444   -0.0739 C.ar    1  LIG1        0.0845
     39 C           6.2385    8.2361   -0.0925 C.ar    1  LIG1        0.1151
     40 O           6.0632    6.8519   -0.0853 O.2     1  LIG1       -0.4576
     41 H           5.1321    8.9182   -0.1144 H       1  LIG1        0.1049
     42 N           9.5885    7.1455   -0.0329 N.pl3   1  LIG1       -0.3536
     43 H           9.8403    6.2973   -0.4989 H       1  LIG1        0.1425
     44 H          10.0144    7.9209   -0.4989 H       1  LIG1        0.1425
     45 N           8.1297    9.7240   -0.0740 N.pl3   1  LIG1       -0.3541
     46 H           9.0107    9.6831   -0.5454 H       1  LIG1        0.1425
     47 H           7.5290   10.3696   -0.5454 H       1  LIG1        0.1425
@<TRIPOS>BOND
     1    47    45    1
     2    46    45    1
     3    44    42    1
     4    43    42    1
     5    41    39    1
     6    39    40   ar
     7    39    38   ar
     8    40    36   ar
     9    35    34    1
    10    34    33    3
    11    45    38    1
    12    38    37   ar
    13    33    27    1
    14    36    37   ar
    15    36    28    1
    16    37    42    1
    17    27    28   ar
    18    27    26   ar
    19    28    29   ar
    20    26    32    1
    21    26    25   ar
    22    29    30    1
    23    29    25   ar
    24    32    31    1
    25    18    17    1
    26    31    23    1
    27    25    16    1
    28    17    16    1
    29    17    13    1
    30    16    15    1
    31    12     7    1
    32     7     6   ar
    33     7     4   ar
    34    13     4    1
    35    13    14    2
    36     6     8    1
    37     6     3   ar
    38     4     2   ar
    39     1     3   ar
    40     1     2   ar
    41     1    10    1
    42     3     9    1
    43     2     5    1
    44    10    11    1
    45    15    14    1
    46    15    22    2
    47    14    19    1
    48    22    23    2
    49    23    24    1
    50    19    20    3
    51    20    21    1
