@<TRIPOS>MOLECULE
mol_data/noopt/geoms/mol2/4fa13lf(60)13ld(310)13ei(190).out
 52 55 0 0 0
SMALL
GASTEIGER

@<TRIPOS>ATOM
      1 C           0.0509    0.0309    0.0002 C.ar    1  LIG1        0.1175
      2 C           1.4592    0.0309    0.0002 C.ar    1  LIG1       -0.0110
      3 C          -0.6045    1.2792    0.0002 C.ar    1  LIG1       -0.0201
      4 C           2.1849    1.2200   -0.0004 C.ar    1  LIG1        0.0055
      5 H           1.9850   -0.9213    0.0004 H       1  LIG1        0.0661
      6 C           0.1195    2.4666   -0.0004 C.ar    1  LIG1       -0.0577
      7 C           1.5181    2.4458   -0.0008 C.ar    1  LIG1       -0.0523
      8 H          -0.4090    3.4165   -0.0003 H       1  LIG1        0.0619
      9 H          -1.9035    1.3287    0.0016 H       1  LIG1        0.0654
     10 O          -0.5709   -1.1108    0.0005 O.3     1  LIG1       -0.5067
     11 H           0.0706   -1.8250    0.0006 H       1  LIG1        0.2921
     12 H           2.1896    3.5590   -0.0012 H       1  LIG1        0.0624
     13 C           3.4844    1.1831   -0.0005 C.ar    1  LIG1        0.0931
     14 C           4.3504    0.6080    0.8754 C.ar    1  LIG1        0.1873
     15 C           5.6758    0.8700    0.4007 C.ar    1  LIG1        0.1866
     16 C           5.5614    1.5921   -0.7454 C.ar    1  LIG1        0.1128
     17 N           4.2214    1.7865   -0.9944 N.ar    1  LIG1       -0.3470
     18 H           3.8458    2.2830   -1.7692 H       1  LIG1        0.1662
     19 O           4.0306   -0.0555    1.9467 O.3     1  LIG1       -0.4895
     20 C           2.6988    0.2863    2.3399 C.3     1  LIG1        0.0791
     21 H           2.4359   -0.2601    3.2215 H       1  LIG1        0.0660
     22 H           2.6446    1.3358    2.5413 H       1  LIG1        0.0660
     23 H           2.0195    0.0390    1.5512 H       1  LIG1        0.0660
     24 O           6.7860    0.4888    0.9595 O.3     1  LIG1       -0.5019
     25 H           7.3535    1.2508    1.0972 H       1  LIG1        0.2924
     26 C           6.4757    2.0652   -1.5392 C.ar    1  LIG1        0.1106
     27 C           7.0016    1.5528   -2.6832 C.ar    1  LIG1        0.1648
     28 C           7.9803    2.4838   -3.1586 C.ar    1  LIG1        0.1206
     29 C           8.0082    3.5251   -2.2851 C.ar    1  LIG1        0.0858
     30 N           7.0889    3.2727   -1.2919 N.ar    1  LIG1       -0.3478
     31 H           6.8978    3.8680   -0.5192 H       1  LIG1        0.1661
     32 O           6.6748    0.4241   -3.2395 O.3     1  LIG1       -0.4916
     33 C           5.2600    0.3847   -3.4437 C.3     1  LIG1        0.0789
     34 H           4.9914   -0.5443   -3.9017 H       1  LIG1        0.0660
     35 H           4.7609    0.4753   -2.5015 H       1  LIG1        0.0660
     36 H           4.9689    1.1936   -4.0807 H       1  LIG1        0.0660
     37 N           9.3520    2.2507   -5.1710 N.1     1  LIG1       -0.1907
     38 C           8.7092    2.3600   -4.2279 C.1     1  LIG1        0.1050
     39 C           8.7274    4.6080   -2.2862 C.ar    1  LIG1        0.0801
     40 C           8.3646    5.9076   -2.4520 C.ar    1  LIG1        0.0542
     41 C           9.5552    6.6985   -2.3646 C.ar    1  LIG1       -0.0171
     42 C          10.5930    5.8476   -2.1474 C.ar    1  LIG1        0.0063
     43 N          10.0907    4.5668   -2.0992 N.ar    1  LIG1       -0.3583
     44 H          10.6271    3.7430   -1.9520 H       1  LIG1        0.1654
     45 H          11.8622    6.0859   -1.9987 H       1  LIG1        0.0810
     46 C           7.1581    6.3474   -2.6542 C.1     1  LIG1       -0.0672
     47 C           6.0433    6.7538   -2.8410 C.1     1  LIG1       -0.1138
     48 H           5.0502    7.1158   -3.0074 H       1  LIG1        0.1232
     49 C           9.6333    7.9920   -2.4722 C.3     1  LIG1       -0.0371
     50 H           8.7851    8.4411   -1.9990 H       1  LIG1        0.0278
     51 H           9.6496    8.2635   -3.5070 H       1  LIG1        0.0278
     52 H          10.5293    8.3358   -1.9990 H       1  LIG1        0.0278
@<TRIPOS>BOND
     1    37    38    3
     2    38    28    1
     3    36    33    1
     4    34    33    1
     5    51    49    1
     6    33    32    1
     7    33    35    1
     8    32    27    1
     9    28    27   ar
    10    28    29   ar
    11    48    47    1
    12    47    46    3
    13    27    26   ar
    14    46    40    1
    15    49    41    1
    16    49    52    1
    17    49    50    1
    18    40    41   ar
    19    40    39   ar
    20    41    42   ar
    21    39    29    1
    22    39    43   ar
    23    29    30   ar
    24    42    43   ar
    25    42    45    1
    26    43    44    1
    27    18    17    1
    28    26    30   ar
    29    26    16    1
    30    30    31    1
    31    17    16   ar
    32    17    13   ar
    33    16    15   ar
    34    12     7    1
    35     7     4   ar
    36     7     6   ar
    37    13     4    1
    38    13    14   ar
    39     4     2   ar
    40     6     8    1
    41     6     3   ar
    42     3     1   ar
    43     3     9    1
    44     2     1   ar
    45     2     5    1
    46     1    10    1
    47    10    11    1
    48    15    14   ar
    49    15    24    1
    50    14    19    1
    51    24    25    1
    52    23    20    1
    53    19    20    1
    54    20    22    1
    55    20    21    1
