@<TRIPOS>MOLECULE
mol_data/noopt/geoms/mol2/4fa4eh(130)12ee(230)13lh(60).out
 52 55 0 0 0
SMALL
GASTEIGER

@<TRIPOS>ATOM
      1 C           0.0509    0.0309    0.0002 C.ar    1  LIG1        0.1174
      2 C           1.4592    0.0309    0.0002 C.ar    1  LIG1       -0.0124
      3 C          -0.6045    1.2792    0.0002 C.ar    1  LIG1       -0.0201
      4 C           2.1849    1.2200   -0.0004 C.ar    1  LIG1       -0.0132
      5 H           1.9850   -0.9213    0.0004 H       1  LIG1        0.0660
      6 C           0.1195    2.4666   -0.0004 C.ar    1  LIG1       -0.0577
      7 C           1.5181    2.4458   -0.0008 C.ar    1  LIG1       -0.0538
      8 H          -0.4090    3.4165   -0.0003 H       1  LIG1        0.0619
      9 H          -1.9035    1.3287    0.0016 H       1  LIG1        0.0654
     10 O          -0.5709   -1.1108    0.0005 O.3     1  LIG1       -0.5067
     11 H           0.0706   -1.8250    0.0006 H       1  LIG1        0.2921
     12 H           2.1896    3.5590   -0.0012 H       1  LIG1        0.0624
     13 C           4.2089    1.9492    0.9354 C.ar    1  LIG1        0.0332
     14 C           5.6146    1.8760    0.8932 C.ar    1  LIG1       -0.0333
     15 C           3.4843    1.1831   -0.0005 C.ar    1  LIG1       -0.0006
     16 C           6.2720    1.0755   -0.0383 C.ar    1  LIG1        0.0403
     17 H           6.1932    2.4592    1.6062 H       1  LIG1        0.0638
     18 C           4.1401    0.3838   -0.9307 C.ar    1  LIG1       -0.0315
     19 C           5.5373    0.3241   -0.9564 C.ar    1  LIG1        0.0360
     20 H           3.5590   -0.1975   -1.6420 H       1  LIG1        0.0643
     21 C           3.6526    2.7136    1.8277 C.1     1  LIG1       -0.0690
     22 C           3.1386    3.4199    2.6522 C.1     1  LIG1       -0.1139
     23 H           2.6807    4.0491    3.3867 H       1  LIG1        0.1232
     24 N           6.1449   -0.4247   -1.8283 N.pl3   1  LIG1       -0.3574
     25 H           5.4674   -0.8856   -2.4015 H       1  LIG1        0.1423
     26 H           6.7354    0.1433   -2.4015 H       1  LIG1        0.1423
     27 C           7.5712    1.0315   -0.0489 C.ar    1  LIG1        0.1541
     28 C           8.5710    1.6673   -0.7555 C.ar    1  LIG1        0.0865
     29 C           9.8266    1.1416   -0.2618 C.ar    1  LIG1        0.0879
     30 C           9.5107    0.2191    0.7144 C.ar    1  LIG1        0.1719
     31 O           8.1261    0.1335    0.8640 O.2     1  LIG1       -0.4506
     32 C           8.4399    2.5651   -1.6865 C.1     1  LIG1       -0.0646
     33 C           8.3188    3.3947   -2.5467 C.1     1  LIG1       -0.1138
     34 H           8.2109    4.1337   -3.3130 H       1  LIG1        0.1232
     35 C          11.0088    1.4893   -0.6759 C.1     1  LIG1       -0.0646
     36 C          12.1012    1.8106   -1.0586 C.1     1  LIG1       -0.1138
     37 H          13.0742    2.0969   -1.3995 H       1  LIG1        0.1232
     38 C          10.1862   -0.5642    1.5020 C.ar    1  LIG1        0.1274
     39 C           9.8811   -1.0530    2.7332 C.ar    1  LIG1        0.1688
     40 C          10.9802   -1.8689    3.1538 C.ar    1  LIG1        0.0851
     41 C          11.9078   -1.8442    2.1603 C.ar    1  LIG1        0.0268
     42 N          11.4259   -1.0462    1.1473 N.ar    1  LIG1       -0.3536
     43 H          11.8979   -0.8498    0.2949 H       1  LIG1        0.1656
     44 H          13.0676   -2.4252    2.0745 H       1  LIG1        0.0827
     45 O           8.7918   -0.8192    3.4031 O.3     1  LIG1       -0.4910
     46 C           8.6746    0.5846    3.6490 C.3     1  LIG1        0.0790
     47 H           7.7778    0.7766    4.2002 H       1  LIG1        0.0660
     48 H           9.5193    0.9194    4.2142 H       1  LIG1        0.0660
     49 H           8.6392    1.1083    2.7166 H       1  LIG1        0.0660
     50 N          11.0766   -2.5158    4.2773 N.pl3   1  LIG1       -0.3540
     51 H          10.3538   -3.2050    4.3282 H       1  LIG1        0.1425
     52 H          11.9690   -2.9643    4.3282 H       1  LIG1        0.1425
@<TRIPOS>BOND
     1    34    33    1
     2    33    32    3
     3    26    24    1
     4    25    24    1
     5    24    19    1
     6    32    28    1
     7    20    18    1
     8    37    36    1
     9    36    35    3
    10    19    18   ar
    11    19    16   ar
    12    18    15   ar
    13    28    29   ar
    14    28    27   ar
    15    35    29    1
    16    29    30   ar
    17    27    16    1
    18    27    31   ar
    19    16    14   ar
    20    12     7    1
    21     7     6   ar
    22     7     4   ar
    23    15     4    1
    24    15    13   ar
    25     6     8    1
    26     6     3   ar
    27     4     2   ar
    28     1     2   ar
    29     1     3   ar
    30     1    10    1
    31     2     5    1
    32     3     9    1
    33    10    11    1
    34    43    42    1
    35    30    31   ar
    36    30    38    1
    37    14    13   ar
    38    14    17    1
    39    13    21    1
    40    42    38   ar
    41    42    41   ar
    42    38    39   ar
    43    21    22    3
    44    44    41    1
    45    41    40   ar
    46    22    23    1
    47    49    46    1
    48    39    40   ar
    49    39    45    1
    50    40    50    1
    51    45    46    1
    52    46    47    1
    53    46    48    1
    54    50    51    1
    55    50    52    1
