@<TRIPOS>MOLECULE
mol_data/noopt/geoms/mol2/4fa4fa4fa.out
 35 37 0 0 0
SMALL
GASTEIGER

@<TRIPOS>ATOM
      1 C           0.0509    0.0309    0.0002 C.ar    1  LIG1        0.1174
      2 C           1.4592    0.0309    0.0002 C.ar    1  LIG1       -0.0124
      3 C          -0.6045    1.2792    0.0002 C.ar    1  LIG1       -0.0201
      4 C           2.1849    1.2200   -0.0004 C.ar    1  LIG1       -0.0110
      5 H           1.9850   -0.9213    0.0004 H       1  LIG1        0.0660
      6 C           0.1195    2.4666   -0.0004 C.ar    1  LIG1       -0.0577
      7 C           1.5181    2.4458   -0.0008 C.ar    1  LIG1       -0.0537
      8 H          -0.4090    3.4165   -0.0003 H       1  LIG1        0.0619
      9 H          -1.9035    1.3287    0.0016 H       1  LIG1        0.0654
     10 O          -0.5709   -1.1108    0.0005 O.3     1  LIG1       -0.5067
     11 H           0.0706   -1.8250    0.0006 H       1  LIG1        0.2921
     12 H           2.1896    3.5590   -0.0012 H       1  LIG1        0.0624
     13 C           4.1518   -0.0588    0.0002 C.ar    1  LIG1        0.1251
     14 C           5.5600   -0.0451    0.0016 C.ar    1  LIG1       -0.0117
     15 C           3.4843    1.1831   -0.0005 C.ar    1  LIG1        0.0237
     16 C           6.2742    1.1510    0.0017 C.ar    1  LIG1       -0.0109
     17 H           6.0950   -0.9922    0.0024 H       1  LIG1        0.0660
     18 C           4.1968    2.3775   -0.0004 C.ar    1  LIG1       -0.0500
     19 C           5.5955    2.3702    0.0006 C.ar    1  LIG1       -0.0531
     20 H           3.6591    3.3222   -0.0009 H       1  LIG1        0.0625
     21 O           3.5411   -1.2065   -0.0001 O.3     1  LIG1       -0.5061
     22 H           4.1895   -1.9144   -0.0001 H       1  LIG1        0.2922
     23 H           6.2561    3.4899    0.0008 H       1  LIG1        0.0624
     24 C           8.2534   -0.1087    0.0043 C.ar    1  LIG1        0.1245
     25 C           9.6614   -0.0814    0.0071 C.ar    1  LIG1       -0.0196
     26 C           7.5739    1.1267    0.0029 C.ar    1  LIG1        0.0237
     27 C          10.3639    1.1216    0.0079 C.ar    1  LIG1       -0.0583
     28 H          10.2056   -1.0232    0.0084 H       1  LIG1        0.0654
     29 C           8.2747    2.3279    0.0036 C.ar    1  LIG1       -0.0505
     30 C           9.6734    2.3342    0.0060 C.ar    1  LIG1       -0.0610
     31 H           7.7279    3.2674    0.0026 H       1  LIG1        0.0625
     32 H          11.6639    1.1099    0.0104 H       1  LIG1        0.0619
     33 O           7.6539   -1.2622    0.0034 O.3     1  LIG1       -0.5062
     34 H           8.3091   -1.9639    0.0032 H       1  LIG1        0.2922
     35 H          10.3232    3.4602    0.0069 H       1  LIG1        0.0618
@<TRIPOS>BOND
     1    12     7    1
     2    20    18    1
     3     7     4   ar
     4     7     6   ar
     5    15    18   ar
     6    15     4    1
     7    15    13   ar
     8    18    19   ar
     9     4     2   ar
    10     6     8    1
    11     6     3   ar
    12    22    21    1
    13    21    13    1
    14     1     3   ar
    15     1     2   ar
    16     1    10    1
    17     3     9    1
    18     2     5    1
    19    13    14   ar
    20    10    11    1
    21    19    23    1
    22    19    16   ar
    23    14    16   ar
    24    14    17    1
    25    16    26    1
    26    31    29    1
    27    26    29   ar
    28    26    24   ar
    29    34    33    1
    30    33    24    1
    31    29    30   ar
    32    24    25   ar
    33    30    35    1
    34    30    27   ar
    35    25    27   ar
    36    25    28    1
    37    27    32    1
