@<TRIPOS>MOLECULE
mol_data/noopt/geoms/mol2/4fa4fa4fa4fa-.out
 46 49 0 0 0
SMALL
GASTEIGER

@<TRIPOS>ATOM
      1 C           0.0509    0.0309    0.0002 C.ar    1  LIG1        0.1174
      2 C           1.4592    0.0309    0.0002 C.ar    1  LIG1       -0.0124
      3 C          -0.6045    1.2792    0.0002 C.ar    1  LIG1       -0.0201
      4 C           2.1849    1.2200   -0.0004 C.ar    1  LIG1       -0.0110
      5 H           1.9850   -0.9213    0.0004 H       1  LIG1        0.0660
      6 C           0.1195    2.4666   -0.0004 C.ar    1  LIG1       -0.0577
      7 C           1.5181    2.4458   -0.0008 C.ar    1  LIG1       -0.0537
      8 H          -0.4090    3.4165   -0.0003 H       1  LIG1        0.0619
      9 H          -1.9035    1.3287    0.0016 H       1  LIG1        0.0654
     10 O          -0.5709   -1.1108    0.0005 O.3     1  LIG1       -0.5067
     11 H           0.0706   -1.8250    0.0006 H       1  LIG1        0.2921
     12 H           2.1896    3.5590   -0.0012 H       1  LIG1        0.0624
     13 C           4.1518   -0.0588    0.0002 C.ar    1  LIG1        0.1251
     14 C           5.5600   -0.0451    0.0016 C.ar    1  LIG1       -0.0117
     15 C           3.4843    1.1831   -0.0005 C.ar    1  LIG1        0.0237
     16 C           6.2742    1.1510    0.0017 C.ar    1  LIG1       -0.0109
     17 H           6.0950   -0.9922    0.0024 H       1  LIG1        0.0660
     18 C           4.1968    2.3775   -0.0004 C.ar    1  LIG1       -0.0500
     19 C           5.5955    2.3702    0.0006 C.ar    1  LIG1       -0.0531
     20 H           3.6591    3.3222   -0.0009 H       1  LIG1        0.0625
     21 O           3.5411   -1.2065   -0.0001 O.3     1  LIG1       -0.5061
     22 H           4.1895   -1.9144   -0.0001 H       1  LIG1        0.2922
     23 H           6.2561    3.4899    0.0008 H       1  LIG1        0.0624
     24 C           8.2534   -0.1087    0.0043 C.ar    1  LIG1        0.1251
     25 C           9.6614   -0.0814    0.0071 C.ar    1  LIG1       -0.0117
     26 C           7.5739    1.1267    0.0029 C.ar    1  LIG1        0.0237
     27 C          10.3639    1.1216    0.0079 C.ar    1  LIG1       -0.0109
     28 H          10.2056   -1.0232    0.0084 H       1  LIG1        0.0660
     29 C           8.2747    2.3279    0.0036 C.ar    1  LIG1       -0.0500
     30 C           9.6734    2.3342    0.0060 C.ar    1  LIG1       -0.0531
     31 H           7.7279    3.2674    0.0026 H       1  LIG1        0.0625
     32 O           7.6539   -1.2622    0.0034 O.3     1  LIG1       -0.5061
     33 H           8.3091   -1.9639    0.0032 H       1  LIG1        0.2922
     34 H          10.3232    3.4602    0.0069 H       1  LIG1        0.0624
     35 C          12.3772    2.3260    0.0125 C.ar    1  LIG1        0.1245
     36 C          13.7839    2.2597    0.0167 C.ar    1  LIG1       -0.0196
     37 C          11.6638    1.1099    0.0104 C.ar    1  LIG1        0.0237
     38 C          14.4529    1.0378    0.0181 C.ar    1  LIG1       -0.0583
     39 H          14.3540    3.1861    0.0186 H       1  LIG1        0.0654
     40 C          12.3311   -0.1102    0.0118 C.ar    1  LIG1       -0.0505
     41 C          13.7291   -0.1553    0.0156 C.ar    1  LIG1       -0.0610
     42 H          11.7585   -1.0342    0.0102 H       1  LIG1        0.0625
     43 H          15.7527    1.0135    0.0219 H       1  LIG1        0.0619
     44 O          11.8099    3.4957    0.0110 O.3     1  LIG1       -0.5062
     45 H          10.8558    3.3891    0.0107 H       1  LIG1        0.2922
     46 H          14.3475   -1.2988    0.0171 H       1  LIG1        0.0618
@<TRIPOS>BOND
     1    12     7    1
     2    20    18    1
     3     7     4   ar
     4     7     6   ar
     5    15    18   ar
     6    15     4    1
     7    15    13   ar
     8    18    19   ar
     9     4     2   ar
    10     6     8    1
    11     6     3   ar
    12    22    21    1
    13    21    13    1
    14     2     1   ar
    15     2     5    1
    16     3     1   ar
    17     3     9    1
    18     1    10    1
    19    13    14   ar
    20    10    11    1
    21    19    23    1
    22    19    16   ar
    23    14    16   ar
    24    14    17    1
    25    16    26    1
    26    31    29    1
    27    26    29   ar
    28    26    24   ar
    29    33    32    1
    30    32    24    1
    31    29    30   ar
    32    24    25   ar
    33    30    34    1
    34    30    27   ar
    35    25    27   ar
    36    25    28    1
    37    27    37    1
    38    42    40    1
    39    37    40   ar
    40    37    35   ar
    41    45    44    1
    42    44    35    1
    43    40    41   ar
    44    35    36   ar
    45    41    46    1
    46    41    38   ar
    47    36    38   ar
    48    36    39    1
    49    38    43    1
