@<TRIPOS>MOLECULE
mol_data/noopt/geoms/mol2/4fa4fa.out
 24 25 0 0 0
SMALL
GASTEIGER

@<TRIPOS>ATOM
      1 C           0.0509    0.0309    0.0002 C.ar    1  LIG1        0.1174
      2 C           1.4592    0.0309    0.0002 C.ar    1  LIG1       -0.0124
      3 C          -0.6045    1.2792    0.0002 C.ar    1  LIG1       -0.0201
      4 C           2.1849    1.2200   -0.0004 C.ar    1  LIG1       -0.0110
      5 H           1.9850   -0.9213    0.0004 H       1  LIG1        0.0660
      6 C           0.1195    2.4666   -0.0004 C.ar    1  LIG1       -0.0577
      7 C           1.5181    2.4458   -0.0008 C.ar    1  LIG1       -0.0537
      8 H          -0.4090    3.4165   -0.0003 H       1  LIG1        0.0619
      9 H          -1.9035    1.3287    0.0016 H       1  LIG1        0.0654
     10 O          -0.5709   -1.1108    0.0005 O.3     1  LIG1       -0.5067
     11 H           0.0706   -1.8250    0.0006 H       1  LIG1        0.2921
     12 H           2.1896    3.5590   -0.0012 H       1  LIG1        0.0624
     13 C           4.1518   -0.0588    0.0002 C.ar    1  LIG1        0.1245
     14 C           5.5600   -0.0451    0.0016 C.ar    1  LIG1       -0.0196
     15 C           3.4843    1.1831   -0.0005 C.ar    1  LIG1        0.0237
     16 C           6.2742    1.1510    0.0017 C.ar    1  LIG1       -0.0583
     17 H           6.0950   -0.9922    0.0024 H       1  LIG1        0.0654
     18 C           4.1968    2.3775   -0.0004 C.ar    1  LIG1       -0.0505
     19 C           5.5955    2.3702    0.0006 C.ar    1  LIG1       -0.0610
     20 H           3.6591    3.3222   -0.0009 H       1  LIG1        0.0625
     21 H           7.5740    1.1267    0.0029 H       1  LIG1        0.0619
     22 O           3.5411   -1.2065   -0.0001 O.3     1  LIG1       -0.5062
     23 H           4.1895   -1.9144   -0.0001 H       1  LIG1        0.2922
     24 H           6.2561    3.4899    0.0008 H       1  LIG1        0.0618
@<TRIPOS>BOND
     1    12     7    1
     2    20    18    1
     3     7     4   ar
     4     7     6   ar
     5    15    18   ar
     6    15     4    1
     7    15    13   ar
     8    18    19   ar
     9     4     2   ar
    10     6     8    1
    11     6     3   ar
    12    23    22    1
    13    22    13    1
    14     2     1   ar
    15     2     5    1
    16     3     1   ar
    17     3     9    1
    18     1    10    1
    19    13    14   ar
    20    10    11    1
    21    19    24    1
    22    19    16   ar
    23    14    16   ar
    24    14    17    1
    25    16    21    1
