@<TRIPOS>MOLECULE
mol_data/noopt/geoms/mol2/4fa4fa-4fa-4fa.out
 46 49 0 0 0
SMALL
GASTEIGER

@<TRIPOS>ATOM
      1 C           0.0509    0.0309    0.0002 C.ar    1  LIG1        0.1174
      2 C           1.4592    0.0309    0.0002 C.ar    1  LIG1       -0.0124
      3 C          -0.6045    1.2792    0.0002 C.ar    1  LIG1       -0.0201
      4 C           2.1849    1.2200   -0.0004 C.ar    1  LIG1       -0.0110
      5 H           1.9850   -0.9213    0.0004 H       1  LIG1        0.0660
      6 C           0.1195    2.4666   -0.0004 C.ar    1  LIG1       -0.0577
      7 C           1.5181    2.4458   -0.0008 C.ar    1  LIG1       -0.0537
      8 H          -0.4090    3.4165   -0.0003 H       1  LIG1        0.0619
      9 H          -1.9035    1.3287    0.0016 H       1  LIG1        0.0654
     10 O          -0.5709   -1.1108    0.0005 O.3     1  LIG1       -0.5067
     11 H           0.0706   -1.8250    0.0006 H       1  LIG1        0.2921
     12 H           2.1896    3.5590   -0.0012 H       1  LIG1        0.0624
     13 C           4.2212    2.3851    0.0002 C.ar    1  LIG1        0.1251
     14 C           5.6264    2.2916    0.0016 C.ar    1  LIG1       -0.0117
     15 C           3.4843    1.1831   -0.0005 C.ar    1  LIG1        0.0237
     16 C           6.2715    1.0569    0.0017 C.ar    1  LIG1       -0.0109
     17 H           6.2143    3.2067    0.0024 H       1  LIG1        0.0660
     18 C           4.1278   -0.0498   -0.0004 C.ar    1  LIG1       -0.0500
     19 C           5.5247   -0.1219    0.0006 C.ar    1  LIG1       -0.0531
     20 H           3.5374   -0.9625   -0.0009 H       1  LIG1        0.0625
     21 O           3.6766    3.5656   -0.0001 O.3     1  LIG1       -0.5061
     22 H           2.7207    3.4775   -0.0002 H       1  LIG1        0.2922
     23 H           6.1208   -1.2772    0.0008 H       1  LIG1        0.0624
     24 C           8.3190    2.2022    0.0043 C.ar    1  LIG1        0.1251
     25 C           9.7232    2.0950    0.0071 C.ar    1  LIG1       -0.0117
     26 C           7.5705    1.0074    0.0029 C.ar    1  LIG1        0.0237
     27 C          10.3563    0.8541    0.0079 C.ar    1  LIG1       -0.0109
     28 H          10.3199    3.0044    0.0084 H       1  LIG1        0.0660
     29 C           8.2020   -0.2317    0.0037 C.ar    1  LIG1       -0.0500
     30 C           9.5982   -0.3174    0.0061 C.ar    1  LIG1       -0.0531
     31 H           7.6028   -1.1386    0.0026 H       1  LIG1        0.0625
     32 O           7.7859    3.3879    0.0034 O.3     1  LIG1       -0.5061
     33 H           6.8292    3.3091    0.0032 H       1  LIG1        0.2922
     34 H          10.1830   -1.4784    0.0069 H       1  LIG1        0.0624
     35 C          12.2980   -0.4626    0.0125 C.ar    1  LIG1        0.1245
     36 C          13.7062   -0.4762    0.0167 C.ar    1  LIG1       -0.0196
     37 C          11.6548    0.7920    0.0104 C.ar    1  LIG1        0.0237
     38 C          14.4434    0.7058    0.0181 C.ar    1  LIG1       -0.0583
     39 H          14.2228   -1.4335    0.0186 H       1  LIG1        0.0654
     40 C          12.3902    1.9724    0.0118 C.ar    1  LIG1       -0.0505
     41 C          13.7886    1.9380    0.0156 C.ar    1  LIG1       -0.0610
     42 H          11.8710    2.9273    0.0102 H       1  LIG1        0.0625
     43 H          15.7425    0.6563    0.0219 H       1  LIG1        0.0619
     44 O          11.6652   -1.5982    0.0110 O.3     1  LIG1       -0.5062
     45 H          12.2998   -2.3186    0.0107 H       1  LIG1        0.2922
     46 H          14.4708    3.0446    0.0171 H       1  LIG1        0.0618
@<TRIPOS>BOND
     1    12     7    1
     2    20    18    1
     3     7     4   ar
     4     7     6   ar
     5    15    18   ar
     6    15     4    1
     7    15    13   ar
     8    18    19   ar
     9     4     2   ar
    10     6     8    1
    11     6     3   ar
    12    22    21    1
    13    21    13    1
    14    13    14   ar
    15     1     3   ar
    16     1     2   ar
    17     1    10    1
    18     3     9    1
    19     2     5    1
    20    10    11    1
    21    19    23    1
    22    19    16   ar
    23    14    16   ar
    24    14    17    1
    25    16    26    1
    26    31    29    1
    27    26    29   ar
    28    26    24   ar
    29    33    32    1
    30    32    24    1
    31    29    30   ar
    32    24    25   ar
    33    30    34    1
    34    30    27   ar
    35    25    27   ar
    36    25    28    1
    37    27    37    1
    38    42    40    1
    39    37    40   ar
    40    37    35   ar
    41    45    44    1
    42    44    35    1
    43    40    41   ar
    44    35    36   ar
    45    41    46    1
    46    41    38   ar
    47    36    38   ar
    48    36    39    1
    49    38    43    1
