@<TRIPOS>MOLECULE
mol_data/noopt/geoms/mol2/4fa6hi(100)6if(170)6ii(160).out
 55 58 0 0 0
SMALL
GASTEIGER

@<TRIPOS>ATOM
      1 C           0.0509    0.0309    0.0002 C.ar    1  LIG1        0.1174
      2 C           1.4592    0.0309    0.0002 C.ar    1  LIG1       -0.0124
      3 C          -0.6045    1.2792    0.0002 C.ar    1  LIG1       -0.0201
      4 C           2.1849    1.2200   -0.0004 C.ar    1  LIG1       -0.0112
      5 H           1.9850   -0.9213    0.0004 H       1  LIG1        0.0660
      6 C           0.1195    2.4666   -0.0004 C.ar    1  LIG1       -0.0577
      7 C           1.5181    2.4458   -0.0008 C.ar    1  LIG1       -0.0537
      8 H          -0.4090    3.4165   -0.0003 H       1  LIG1        0.0619
      9 H          -1.9035    1.3287    0.0016 H       1  LIG1        0.0654
     10 O          -0.5709   -1.1108    0.0005 O.3     1  LIG1       -0.5067
     11 H           0.0706   -1.8250    0.0006 H       1  LIG1        0.2921
     12 H           2.1896    3.5590   -0.0012 H       1  LIG1        0.0624
     13 C           4.1891    0.9522   -1.1961 C.ar    1  LIG1        0.1246
     14 C           3.4844    1.1831   -0.0005 C.ar    1  LIG1        0.0221
     15 C           4.2115    1.3704    1.1765 C.ar    1  LIG1       -0.0458
     16 C           5.6054    1.3211    1.1203 C.ar    1  LIG1       -0.0237
     17 C           6.2194    1.0840   -0.1232 C.ar    1  LIG1        0.0778
     18 N           5.5334    0.9014   -1.2684 N.ar    1  LIG1       -0.2315
     19 H           3.6955    1.5523    2.1299 H       1  LIG1        0.0628
     20 N           3.5566    0.7721   -2.3174 N.pl3   1  LIG1       -0.3426
     21 H           3.5619    1.6226   -2.8434 H       1  LIG1        0.1437
     22 H           4.0091    0.0520   -2.8435 H       1  LIG1        0.1437
     23 C           6.3275    1.4891    2.1885 C.3     1  LIG1       -0.0377
     24 H           5.9240    2.2922    2.7692 H       1  LIG1        0.0278
     25 H           7.3328    1.7231    1.9063 H       1  LIG1        0.0278
     26 H           6.3201    0.5904    2.7691 H       1  LIG1        0.0278
     27 C           8.1551   -0.1944   -0.4931 C.ar    1  LIG1        0.0483
     28 C           7.5141    1.0293   -0.2265 C.ar    1  LIG1        0.0252
     29 C           8.2987    2.1743   -0.0772 C.ar    1  LIG1       -0.0071
     30 C           9.6847    2.0596   -0.1979 C.ar    1  LIG1        0.1434
     31 C          10.2328    0.7917   -0.4656 C.ar    1  LIG1        0.1143
     32 N           9.4907   -0.3232   -0.6127 N.ar    1  LIG1       -0.2475
     33 H           7.8336    3.1479    0.1327 H       1  LIG1        0.0662
     34 C           7.4673   -1.2881   -0.6402 C.3     1  LIG1       -0.0217
     35 H           7.9878   -2.1015   -0.1794 H       1  LIG1        0.0293
     36 H           7.3394   -1.4915   -1.6829 H       1  LIG1        0.0293
     37 H           6.5087   -1.1712   -0.1794 H       1  LIG1        0.0293
     38 O          10.4587    3.0959   -0.0673 O.3     1  LIG1       -0.5046
     39 H           9.9245    3.8928   -0.0351 H       1  LIG1        0.2922
     40 C          12.0430   -0.5796   -1.0663 C.ar    1  LIG1        0.0475
     41 C          11.5175    0.6342   -0.5868 C.ar    1  LIG1        0.0252
     42 C          12.4049    1.6571   -0.2475 C.ar    1  LIG1       -0.0464
     43 C          13.7750    1.4353   -0.3971 C.ar    1  LIG1       -0.0317
     44 C          14.2039    0.1871   -0.8845 C.ar    1  LIG1        0.0308
     45 N          13.3616   -0.8107   -1.2168 N.ar    1  LIG1       -0.2592
     46 H          12.0314    2.6190    0.1315 H       1  LIG1        0.0628
     47 H          15.4691   -0.0671   -1.0412 H       1  LIG1        0.0832
     48 C          11.2568   -1.5617   -1.3954 C.3     1  LIG1       -0.0217
     49 H          11.6434   -2.4767   -0.9976 H       1  LIG1        0.0293
     50 H          11.2008   -1.6318   -2.4616 H       1  LIG1        0.0293
     51 H          10.2794   -1.3846   -0.9977 H       1  LIG1        0.0293
     52 C          14.6419    2.3560   -0.0948 C.3     1  LIG1       -0.0383
     53 H          14.1633    3.1221    0.4787 H       1  LIG1        0.0278
     54 H          15.0405    2.7794   -0.9931 H       1  LIG1        0.0278
     55 H          15.4354    1.9243    0.4787 H       1  LIG1        0.0278
@<TRIPOS>BOND
     1    22    20    1
     2    21    20    1
     3    50    48    1
     4    20    13    1
     5    36    34    1
     6    48    40    1
     7    48    51    1
     8    48    49    1
     9    18    13   ar
    10    18    17   ar
    11    45    40   ar
    12    45    44   ar
    13    13    14   ar
    14    40    41   ar
    15    47    44    1
    16    54    52    1
    17    44    43   ar
    18    34    27    1
    19    34    37    1
    20    34    35    1
    21    32    27   ar
    22    32    31   ar
    23    41    31    1
    24    41    42   ar
    25    27    28   ar
    26    31    30   ar
    27    43    42   ar
    28    43    52    1
    29    42    46    1
    30    28    17    1
    31    28    29   ar
    32    30    29   ar
    33    30    38    1
    34    17    16   ar
    35    52    55    1
    36    52    53    1
    37    29    33    1
    38    38    39    1
    39    12     7    1
    40     7     6   ar
    41     7     4   ar
    42    14     4    1
    43    14    15   ar
    44     6     8    1
    45     6     3   ar
    46     4     2   ar
    47     1     2   ar
    48     1     3   ar
    49     1    10    1
    50     2     5    1
    51     3     9    1
    52    10    11    1
    53    16    15   ar
    54    16    23    1
    55    15    19    1
    56    25    23    1
    57    23    26    1
    58    23    24    1
