@<TRIPOS>MOLECULE
mol_data/noopt/geoms/mol2/4fd12ei6ff6ii-.out
 52 54 0 0 0
SMALL
GASTEIGER

@<TRIPOS>ATOM
      1 C           0.0509    0.0309    0.0002 C.ar    1  LIG1        0.1175
      2 C           1.4592    0.0309    0.0002 C.ar    1  LIG1       -0.0112
      3 C          -0.6045    1.2792    0.0002 C.ar    1  LIG1       -0.0189
      4 C           2.1849    1.2200   -0.0004 C.ar    1  LIG1        0.0047
      5 H           1.9850   -0.9213    0.0004 H       1  LIG1        0.0660
      6 C           0.1195    2.4666   -0.0004 C.ar    1  LIG1       -0.0403
      7 C           1.5181    2.4458   -0.0008 C.ar    1  LIG1        0.0597
      8 H          -0.4090    3.4165   -0.0003 H       1  LIG1        0.0632
      9 H          -1.9035    1.3287    0.0016 H       1  LIG1        0.0654
     10 O          -0.5709   -1.1108    0.0005 O.3     1  LIG1       -0.5067
     11 H           0.0706   -1.8250    0.0006 H       1  LIG1        0.2921
     12 N           2.7818    4.5408   -0.0016 N.1     1  LIG1       -0.1909
     13 C           2.1896    3.5590   -0.0012 C.1     1  LIG1        0.0998
     14 C           3.4844    1.1831   -0.0005 C.2     1  LIG1        0.0081
     15 C           4.4399    0.1881   -0.0006 C.2     1  LIG1        0.0396
     16 C           5.7279    0.8499   -0.0007 C.2     1  LIG1        0.0129
     17 C           5.4738    2.2061   -0.0008 C.2     1  LIG1        0.1953
     18 O           4.0977    2.4367   -0.0007 O.2     1  LIG1       -0.2868
     19 C           4.2495   -1.0979   -0.0005 C.1     1  LIG1       -0.0687
     20 C           4.0736   -2.2861   -0.0004 C.1     1  LIG1       -0.1139
     21 H           3.9169   -3.3446   -0.0003 H       1  LIG1        0.1232
     22 C           6.8849    0.2564   -0.0008 C.3     1  LIG1       -0.0349
     23 H           7.6010    0.8709    0.5036 H       1  LIG1        0.0279
     24 H           7.2022    0.0937   -1.0096 H       1  LIG1        0.0279
     25 H           6.8034   -0.6837    0.5036 H       1  LIG1        0.0279
     26 C           5.5900    4.5523   -0.0007 C.ar    1  LIG1        0.2242
     27 C           6.1999    3.2844   -0.0008 C.ar    1  LIG1        0.0867
     28 C           7.5942    3.2153   -0.0007 C.ar    1  LIG1       -0.0021
     29 C           8.3260    4.4040   -0.0006 C.ar    1  LIG1        0.1437
     30 C           7.6251    5.6240   -0.0007 C.ar    1  LIG1        0.1178
     31 N           6.2805    5.7091   -0.0006 N.ar    1  LIG1       -0.2087
     32 H           8.1062    2.2426   -0.0018 H       1  LIG1        0.0663
     33 O           4.2952    4.6681   -0.0007 O.3     1  LIG1       -0.4919
     34 H           3.8954    3.7953   -0.0007 H       1  LIG1        0.2938
     35 O           9.6260    4.3930   -0.0007 O.3     1  LIG1       -0.5046
     36 H           9.9540    5.2952   -0.0007 H       1  LIG1        0.2922
     37 C           7.5521    7.9719   -0.0215 C.ar    1  LIG1        0.0475
     38 C           8.2619    6.7574   -0.0005 C.ar    1  LIG1        0.0253
     39 C           9.6572    6.8008    0.0205 C.ar    1  LIG1       -0.0464
     40 C          10.2908    8.0447    0.0198 C.ar    1  LIG1       -0.0317
     41 C           9.4941    9.2041   -0.0022 C.ar    1  LIG1        0.0308
     42 N           8.1471    9.1805   -0.0225 N.ar    1  LIG1       -0.2592
     43 H          10.2457    5.8726    0.0362 H       1  LIG1        0.0628
     44 H          10.0375   10.3851   -0.0037 H       1  LIG1        0.0832
     45 C           6.2520    7.9829   -0.0414 C.3     1  LIG1       -0.0217
     46 H           5.8802    7.1124    0.4575 H       1  LIG1        0.0293
     47 H           5.9108    7.9858   -1.0556 H       1  LIG1        0.0293
     48 H           5.8951    8.8597    0.4574 H       1  LIG1        0.0293
     49 C          11.5876    8.1385    0.0388 C.3     1  LIG1       -0.0383
     50 H          11.8729    9.0351    0.5484 H       1  LIG1        0.0278
     51 H          11.9580    8.1654   -0.9647 H       1  LIG1        0.0278
     52 H          11.9989    7.2923    0.5483 H       1  LIG1        0.0278
@<TRIPOS>BOND
     1    47    45    1
     2    24    22    1
     3    51    49    1
     4    45    37    1
     5    45    48    1
     6    45    46    1
     7    42    37   ar
     8    42    41   ar
     9    37    38   ar
    10    44    41    1
    11    41    40   ar
    12    32    28    1
    13    12    13    3
    14    13     7    1
    15    27    17    1
    16    27    26   ar
    17    27    28   ar
    18     7     6   ar
    19     7     4   ar
    20    22    16    1
    21    22    25    1
    22    22    23    1
    23    17    18    1
    24    17    16    2
    25    34    33    1
    26    33    26    1
    27    30    31   ar
    28    30    29   ar
    29    30    38    1
    30    36    35    1
    31    16    15    1
    32    26    31   ar
    33    28    29   ar
    34    35    29    1
    35    15    14    2
    36    15    19    1
    37    38    39   ar
    38    14     4    1
    39    19    20    3
    40     6     8    1
    41     6     3   ar
    42     4     2   ar
    43    20    21    1
    44     1     3   ar
    45     1     2   ar
    46     1    10    1
    47     3     9    1
    48     2     5    1
    49    10    11    1
    50    40    39   ar
    51    40    49    1
    52    39    43    1
    53    49    52    1
    54    49    50    1
