@<TRIPOS>MOLECULE
mol_data/noopt/geoms/mol2/4fd12id-13lh-4lf-.out
 54 54 0 0 0
SMALL
GASTEIGER

@<TRIPOS>ATOM
      1 C           0.0509    0.0309    0.0002 C.ar    1  LIG1        0.1176
      2 C           1.4592    0.0309    0.0002 C.ar    1  LIG1       -0.0083
      3 C          -0.6045    1.2792    0.0002 C.ar    1  LIG1       -0.0189
      4 C           2.1849    1.2200   -0.0004 C.ar    1  LIG1        0.0383
      5 H           1.9850   -0.9213    0.0004 H       1  LIG1        0.0661
      6 C           0.1195    2.4666   -0.0004 C.ar    1  LIG1       -0.0402
      7 C           1.5181    2.4458   -0.0008 C.ar    1  LIG1        0.0626
      8 H          -0.4090    3.4165   -0.0003 H       1  LIG1        0.0632
      9 H          -1.9035    1.3287    0.0016 H       1  LIG1        0.0654
     10 O          -0.5709   -1.1108    0.0005 O.3     1  LIG1       -0.5067
     11 H           0.0706   -1.8250    0.0006 H       1  LIG1        0.2921
     12 N           2.7818    4.5408   -0.0016 N.1     1  LIG1       -0.1908
     13 C           2.1896    3.5590   -0.0012 C.1     1  LIG1        0.0999
     14 C           3.4844    1.1831   -0.0005 C.ar    1  LIG1        0.1403
     15 C           4.4399    0.1882    0.0142 C.ar    1  LIG1        0.0011
     16 C           5.7279    0.8500    0.0034 C.ar    1  LIG1        0.0268
     17 C           5.4738    2.2059   -0.0172 C.ar    1  LIG1        0.1609
     18 O           4.0977    2.4365   -0.0202 O.2     1  LIG1       -0.4526
     19 C           4.2495   -1.0979    0.0341 C.3     1  LIG1       -0.0358
     20 H           5.0626   -1.5710    0.5439 H       1  LIG1        0.0279
     21 H           4.1951   -1.4660   -0.9692 H       1  LIG1        0.0279
     22 H           3.3341   -1.3151    0.5438 H       1  LIG1        0.0279
     23 N           7.9048   -0.2666    0.0194 N.3     1  LIG1       -0.2430
     24 C           6.8846    0.2567    0.0119 C.3     1  LIG1        0.0855
     25 CA          6.1999    3.2842   -0.0341 C.2     1  LIG1        0.1338
     26 C           7.5505    3.4379   -0.0459 C.2     1  LIG1        0.2541
     27 C           7.8207    4.8441   -0.0617 C.3     1  LIG1        0.0499
     28 C           6.6234    5.4878   -0.0606 C.2     1  LIG1        0.0366
     29 N           5.6284    4.5366   -0.0432 N.2     1  LIG1       -0.3513
     30 H           4.6523    4.7242   -0.0387 H       1  LIG1        0.1658
     31 O           8.4315    2.4819   -0.0419 O.2     1  LIG1       -0.2814
     32 C           7.7636    1.2174   -0.0405 C.3     1  LIG1       -0.0250
     33 H           8.4890    0.4309   -0.0374 H       1  LIG1        0.1417
     34 H           7.1493    1.1395    0.8321 H       1  LIG1        0.0288
     35 H           7.1527    1.1357   -0.9151 H       1  LIG1        0.0288
     36 N           8.9933    5.4053   -0.0750 N.3     2  LIG2       -0.3437
     37 H           9.6421    4.8107   -0.5499 H       1  LIG1        0.1146
     38 H           8.9371    6.2836   -0.5499 H       2  LIG2        0.0265
     39 C           7.3950    7.7033   -0.0556 C.ar    1  LIG1        0.1880
     40 C           7.0452    9.0675   -0.0671 C.ar    1  LIG1       -0.0108
     41 C           6.3488    6.7584   -0.0717 C.ar    1  LIG1        0.0449
     42 C           5.7134    9.4750   -0.0940 C.ar    1  LIG1       -0.0165
     43 H           7.8369    9.8134   -0.0548 H       1  LIG1        0.0657
     44 C           5.0190    7.1646   -0.0985 C.ar    1  LIG1       -0.0077
     45 C           4.6918    8.5246   -0.1100 C.ar    1  LIG1        0.1177
     46 H           4.2303    6.4167   -0.1104 H       1  LIG1        0.0662
     47 H           5.4264   10.7429   -0.1040 H       1  LIG1        0.0655
     48 O           8.6551    7.3847   -0.0307 O.3     1  LIG1       -0.2872
     49 C           8.7873    5.9609   -0.0216 C.3     3  LIG3       -0.0531
     50 H           9.8246    5.6991   -0.0012 H       1  LIG1        0.1146
     51 H           8.3020    5.5631    0.8452 H       2  LIG2        0.0265
     52 H           8.3343    5.5550   -0.9018 H       1  LIG1        0.1146
     53 O           3.4469    8.8984   -0.1349 O.3     1  LIG1       -0.5067
     54 H           2.8798    8.1239   -0.1411 H       1  LIG1        0.2921
@<TRIPOS>BOND
     1    21    19    1
     2    35    32    1
     3    52    36    1
     4    38    49    1
     5    37    36    1
     6    54    53    1
     7    53    45    1
     8    46    44    1
     9    45    44   ar
    10    45    42   ar
    11    47    42    1
    12    44    41   ar
    13    42    40   ar
    14    36    50    1
    15    41    28    1
    16    41    39   ar
    17    40    39   ar
    18    40    43    1
    19    27    28    1
    20    28    29    2
    21    39    48    1
    22    26    31    1
    23    26    25    2
    24    29    30    1
    25    29    25    1
    26    32    24    1
    27    32    34    1
    28    33    23    1
    29    25    17    1
    30    49    51    1
    31    18    17   ar
    32    18    14   ar
    33    17    16   ar
    34    12    13    3
    35    13     7    1
    36     7     6   ar
    37     7     4   ar
    38    14     4    1
    39    14    15   ar
    40     6     8    1
    41     6     3   ar
    42     4     2   ar
    43     2     1   ar
    44     2     5    1
    45     1     3   ar
    46     1    10    1
    47     3     9    1
    48    10    11    1
    49    16    24    1
    50    16    15   ar
    51    24    23    1
    52    15    19    1
    53    19    22    1
    54    19    20    1
