@<TRIPOS>MOLECULE
mol_data/noopt/geoms/mol2/4fd13ih(210)6ae4hf(30).out
 51 54 0 0 0
SMALL
GASTEIGER

@<TRIPOS>ATOM
      1 C           0.0509    0.0309    0.0002 C.ar    1  LIG1        0.1176
      2 C           1.4592    0.0309    0.0002 C.ar    1  LIG1       -0.0098
      3 C          -0.6045    1.2792    0.0002 C.ar    1  LIG1       -0.0189
      4 C           2.1849    1.2200   -0.0004 C.ar    1  LIG1        0.0194
      5 H           1.9850   -0.9213    0.0004 H       1  LIG1        0.0661
      6 C           0.1195    2.4666   -0.0004 C.ar    1  LIG1       -0.0403
      7 C           1.5181    2.4458   -0.0008 C.ar    1  LIG1        0.0611
      8 H          -0.4090    3.4165   -0.0003 H       1  LIG1        0.0632
      9 H          -1.9035    1.3287    0.0016 H       1  LIG1        0.0654
     10 O          -0.5709   -1.1108    0.0005 O.3     1  LIG1       -0.5067
     11 H           0.0706   -1.8250    0.0006 H       1  LIG1        0.2921
     12 N           2.7818    4.5408   -0.0016 N.1     1  LIG1       -0.1908
     13 C           2.1896    3.5590   -0.0012 C.1     1  LIG1        0.0998
     14 C           3.4844    1.1831   -0.0005 C.ar    1  LIG1        0.0530
     15 C           4.3919    2.0715   -0.4854 C.ar    1  LIG1       -0.0039
     16 C           5.6947    1.5380   -0.2234 C.ar    1  LIG1        0.0538
     17 C           5.5261    0.3479    0.4115 C.ar    1  LIG1        0.0696
     18 N           4.1744    0.1265    0.5496 N.ar    1  LIG1       -0.3524
     19 H           3.7621   -0.6695    0.9790 H       1  LIG1        0.1660
     20 C           4.1226    3.1968   -1.0787 C.3     1  LIG1       -0.0359
     21 H           3.1455    3.5260   -0.7925 H       1  LIG1        0.0279
     22 H           4.1558    3.0579   -2.1391 H       1  LIG1        0.0279
     23 H           4.8449    3.9326   -0.7926 H       1  LIG1        0.0279
     24 N           6.8313    2.0876   -0.5336 N.pl3   1  LIG1       -0.3561
     25 H           7.3769    1.4445   -1.0710 H       1  LIG1        0.1424
     26 H           6.6660    2.9146   -1.0710 H       1  LIG1        0.1424
     27 C           7.7293   -0.1025    1.0910 C.ar    1  LIG1        0.0375
     28 C           6.4029   -0.5056    0.8506 C.ar    1  LIG1        0.0194
     29 C           6.0557   -1.8356    1.0944 C.ar    1  LIG1       -0.0336
     30 C           7.0361   -2.7105    1.5656 C.ar    1  LIG1        0.0513
     31 C           8.3354   -2.2131    1.7752 C.ar    1  LIG1        0.0882
     32 N           8.6876   -0.9331    1.5454 N.ar    1  LIG1       -0.2530
     33 H           5.0294   -2.1874    0.9174 H       1  LIG1        0.0637
     34 H           8.1006    1.1251    0.8791 H       1  LIG1        0.0836
     35 C           6.7631   -3.9583    1.8077 C.1     1  LIG1       -0.0675
     36 C           6.5109   -5.1112    2.0314 C.1     1  LIG1       -0.1138
     37 H           6.2862   -6.1382    2.2307 H       1  LIG1        0.1232
     38 C           8.9639   -4.0960    3.0257 C.ar    1  LIG1        0.0341
     39 C          10.0256   -4.9045    3.4757 C.ar    1  LIG1       -0.0370
     40 C           9.2823   -2.9887    2.2130 C.ar    1  LIG1        0.0256
     41 C          11.3465   -4.6252    3.1324 C.ar    1  LIG1       -0.0184
     42 H           9.8023   -5.7639    4.1040 H       1  LIG1        0.0637
     43 C          10.6008   -2.7094    1.8700 C.ar    1  LIG1       -0.0092
     44 C          11.6415   -3.5248    2.3266 C.ar    1  LIG1        0.1176
     45 H          10.8206   -1.8497    1.2422 H       1  LIG1        0.0661
     46 H          12.3020   -5.3930    3.5654 H       1  LIG1        0.0655
     47 N           7.7522   -4.4074    3.3790 N.pl3   1  LIG1       -0.3575
     48 H           7.1142   -3.7283    3.0160 H       1  LIG1        0.1423
     49 H           7.5207   -5.3098    3.0160 H       1  LIG1        0.1423
     50 O          12.8722   -3.2588    2.0029 O.3     1  LIG1       -0.5067
     51 H          12.9842   -2.3087    1.9231 H       1  LIG1        0.2921
@<TRIPOS>BOND
     1    22    20    1
     2    20    23    1
     3    20    21    1
     4    20    15    1
     5    26    24    1
     6    25    24    1
     7    24    16    1
     8    15    16   ar
     9    15    14   ar
    10    16    17   ar
    11    12    13    3
    12    13     7    1
    13     7     6   ar
    14     7     4   ar
    15    14     4    1
    16    14    18   ar
    17     6     8    1
    18     6     3   ar
    19     4     2   ar
    20     1     3   ar
    21     1     2   ar
    22     1    10    1
    23     3     9    1
    24     2     5    1
    25    10    11    1
    26    17    18   ar
    27    17    28    1
    28    18    19    1
    29    28    27   ar
    30    28    29   ar
    31    34    27    1
    32    33    29    1
    33    27    32   ar
    34    29    30   ar
    35    45    43    1
    36    32    31   ar
    37    30    31   ar
    38    30    35    1
    39    31    40    1
    40    35    36    3
    41    43    40   ar
    42    43    44   ar
    43    51    50    1
    44    50    44    1
    45    36    37    1
    46    40    38   ar
    47    44    41   ar
    48    49    47    1
    49    48    47    1
    50    38    47    1
    51    38    39   ar
    52    41    39   ar
    53    41    46    1
    54    39    42    1
