@<TRIPOS>MOLECULE
mol_data/noopt/geoms/mol2/4fd12ad(330)6la(200)12dl(280).out
 47 50 0 0 0
SMALL
GASTEIGER

@<TRIPOS>ATOM
      1 C           0.0509    0.0309    0.0002 C.ar    1  LIG1        0.1176
      2 C           1.4592    0.0309    0.0002 C.ar    1  LIG1       -0.0083
      3 C          -0.6045    1.2792    0.0002 C.ar    1  LIG1       -0.0189
      4 C           2.1849    1.2200   -0.0004 C.ar    1  LIG1        0.0381
      5 H           1.9850   -0.9213    0.0004 H       1  LIG1        0.0661
      6 C           0.1195    2.4666   -0.0004 C.ar    1  LIG1       -0.0402
      7 C           1.5181    2.4458   -0.0008 C.ar    1  LIG1        0.0626
      8 H          -0.4090    3.4165   -0.0003 H       1  LIG1        0.0632
      9 H          -1.9035    1.3287    0.0016 H       1  LIG1        0.0654
     10 O          -0.5709   -1.1108    0.0005 O.3     1  LIG1       -0.5067
     11 H           0.0706   -1.8250    0.0006 H       1  LIG1        0.2921
     12 N           2.7818    4.5408   -0.0016 N.1     1  LIG1       -0.1908
     13 C           2.1896    3.5590   -0.0012 C.1     1  LIG1        0.0999
     14 C           3.4844    1.1831   -0.0005 C.ar    1  LIG1        0.1383
     15 C           4.4428    0.2922   -0.4372 C.ar    1  LIG1        0.0023
     16 C           5.7287    0.8789   -0.1222 C.ar    1  LIG1        0.0982
     17 C           5.4706    2.0900    0.4862 C.ar    1  LIG1        0.1581
     18 O           4.0939    2.3001    0.5727 O.2     1  LIG1       -0.4533
     19 H           4.2563   -0.8549   -1.0197 H       1  LIG1        0.0668
     20 N           7.9088   -0.1243   -0.5983 N.1     1  LIG1       -0.1907
     21 C           6.8871    0.3458   -0.3752 C.1     1  LIG1        0.1030
     22 C           7.4051    2.7630    1.6365 C.ar    1  LIG1        0.2261
     23 C           6.1933    3.0502    0.9820 C.ar    1  LIG1        0.0800
     24 C           5.7906    4.3830    0.8793 C.ar    1  LIG1       -0.0438
     25 C           6.6043    5.3751    1.4291 C.ar    1  LIG1       -0.0317
     26 C           7.7984    4.9883    2.0646 C.ar    1  LIG1        0.1112
     27 N           8.2023    3.7074    2.1725 N.ar    1  LIG1       -0.2091
     28 H           4.8495    4.6459    0.3758 H       1  LIG1        0.0627
     29 O           7.8223    1.5376    1.7571 O.3     1  LIG1       -0.4792
     30 C           6.6994    0.6533    1.8014 C.3     1  LIG1        0.0804
     31 H           7.0431   -0.3551    1.9005 H       1  LIG1        0.0660
     32 H           6.0812    0.9033    2.6383 H       1  LIG1        0.0660
     33 H           6.1334    0.7500    0.8985 H       1  LIG1        0.0660
     34 H           6.2735    6.6304    1.3599 H       1  LIG1        0.0640
     35 C           8.5893    5.8753    2.5917 C.ar    1  LIG1        0.1740
     36 C           9.5860    6.7062    2.1233 C.ar    1  LIG1        0.1404
     37 C          10.0703    7.4564    3.2633 C.ar    1  LIG1        0.1757
     38 C           9.3371    7.0340    4.3531 C.ar    1  LIG1        0.1355
     39 O           8.4174    6.0594    3.9643 O.2     1  LIG1       -0.4563
     40 H           9.3076    7.3267    5.6194 H       1  LIG1        0.1068
     41 N          10.4104    6.9102   -0.1711 N.1     1  LIG1       -0.1906
     42 C          10.0240    6.8146    0.9042 C.1     1  LIG1        0.1067
     43 O          11.0147    8.3494    3.2368 O.3     1  LIG1       -0.4907
     44 C          12.2876    7.6978    3.2269 C.3     1  LIG1        0.0790
     45 H          13.0646    8.4332    3.2049 H       1  LIG1        0.0660
     46 H          12.3884    7.0987    4.1078 H       1  LIG1        0.0660
     47 H          12.3623    7.0740    2.3609 H       1  LIG1        0.0660
@<TRIPOS>BOND
     1    19    15    1
     2    20    21    3
     3    15    16   ar
     4    15    14   ar
     5    21    16    1
     6    41    42    3
     7    16    17   ar
     8    12    13    3
     9    13     7    1
    10     7     4   ar
    11     7     6   ar
    12    14     4    1
    13    14    18   ar
    14     4     2   ar
    15     6     8    1
    16     6     3   ar
    17     1     3   ar
    18     1     2   ar
    19     1    10    1
    20     3     9    1
    21     2     5    1
    22    10    11    1
    23    28    24    1
    24    17    18   ar
    25    17    23    1
    26    24    23   ar
    27    24    25   ar
    28    33    30    1
    29    42    36    1
    30    23    22   ar
    31    34    25    1
    32    25    26   ar
    33    22    29    1
    34    22    27   ar
    35    29    30    1
    36    30    31    1
    37    30    32    1
    38    26    27   ar
    39    26    35    1
    40    36    35   ar
    41    36    37   ar
    42    47    44    1
    43    35    39   ar
    44    45    44    1
    45    44    43    1
    46    44    46    1
    47    43    37    1
    48    37    38   ar
    49    39    38   ar
    50    38    40    1
