@<TRIPOS>MOLECULE
mol_data/noopt/geoms/mol2/4fd12hd(150)6if(110)4ad(180).out
 48 51 0 0 0
SMALL
GASTEIGER

@<TRIPOS>ATOM
      1 C           0.0509    0.0309    0.0002 C.ar    1  LIG1        0.1176
      2 C           1.4592    0.0309    0.0002 C.ar    1  LIG1       -0.0082
      3 C          -0.6045    1.2792    0.0002 C.ar    1  LIG1       -0.0189
      4 C           2.1849    1.2200   -0.0004 C.ar    1  LIG1        0.0399
      5 H           1.9850   -0.9213    0.0004 H       1  LIG1        0.0661
      6 C           0.1195    2.4666   -0.0004 C.ar    1  LIG1       -0.0402
      7 C           1.5181    2.4458   -0.0008 C.ar    1  LIG1        0.0627
      8 H          -0.4090    3.4165   -0.0003 H       1  LIG1        0.0632
      9 H          -1.9035    1.3287    0.0016 H       1  LIG1        0.0654
     10 O          -0.5709   -1.1108    0.0005 O.3     1  LIG1       -0.5067
     11 H           0.0706   -1.8250    0.0006 H       1  LIG1        0.2921
     12 N           2.7818    4.5408   -0.0016 N.1     1  LIG1       -0.1908
     13 C           2.1896    3.5590   -0.0012 C.1     1  LIG1        0.0999
     14 C           3.4844    1.1831   -0.0005 C.ar    1  LIG1        0.1589
     15 C           4.4919    2.0182    0.4361 C.ar    1  LIG1        0.0893
     16 C           5.7424    1.3594    0.1209 C.ar    1  LIG1        0.1187
     17 C           5.4158    0.1650   -0.4876 C.ar    1  LIG1        0.1567
     18 O           4.0294    0.0334   -0.5738 O.2     1  LIG1       -0.4515
     19 N           4.3709    3.1740    1.0186 N.pl3   1  LIG1       -0.3540
     20 H           5.1299    3.7655    0.7465 H       1  LIG1        0.1425
     21 H           3.5059    3.5955    0.7465 H       1  LIG1        0.1425
     22 N           7.9759    2.2374    0.5966 N.1     1  LIG1       -0.1907
     23 C           6.9292    1.8259    0.3737 C.1     1  LIG1        0.1048
     24 C           5.8607   -1.2501   -2.3091 C.ar    1  LIG1        0.0498
     25 C           6.0828   -0.8347   -0.9834 C.ar    1  LIG1        0.0431
     26 C           7.0311   -1.5185   -0.2205 C.ar    1  LIG1       -0.0056
     27 C           7.7193   -2.5848   -0.8019 C.ar    1  LIG1        0.1434
     28 C           7.4269   -2.9254   -2.1354 C.ar    1  LIG1        0.1126
     29 N           6.5155   -2.2765   -2.8859 N.ar    1  LIG1       -0.2475
     30 H           7.2312   -1.2233    0.8193 H       1  LIG1        0.0662
     31 C           4.9880   -0.6446   -3.0591 C.3     1  LIG1       -0.0216
     32 H           4.0115   -1.0305   -2.8528 H       1  LIG1        0.0293
     33 H           5.2266   -0.8103   -4.0890 H       1  LIG1        0.0293
     34 H           5.0076    0.4051   -2.8529 H       1  LIG1        0.0293
     35 O           8.6116   -3.2533   -0.1334 O.3     1  LIG1       -0.5046
     36 H           9.3741   -2.6939    0.0314 H       1  LIG1        0.2922
     37 C           9.4102   -3.7953   -3.0375 C.ar    1  LIG1       -0.0524
     38 C          10.0294   -4.8893   -3.6724 C.ar    1  LIG1       -0.0599
     39 C           8.0412   -3.9103   -2.7206 C.ar    1  LIG1        0.0051
     40 C           9.3190   -6.0478   -3.9786 C.ar    1  LIG1       -0.0443
     41 H          11.0850   -4.8216   -3.9260 H       1  LIG1        0.0618
     42 C           7.3316   -5.0667   -3.0261 C.ar    1  LIG1       -0.0350
     43 C           7.9645   -6.1429   -3.6566 C.ar    1  LIG1        0.0524
     44 H           6.2767   -5.1310   -2.7716 H       1  LIG1        0.0637
     45 H           9.9223   -7.0389   -4.5651 H       1  LIG1        0.0630
     46 H          10.1253   -2.7414   -2.7771 H       1  LIG1        0.0624
     47 N           6.7064   -8.1723   -4.1897 N.1     1  LIG1       -0.1909
     48 C           7.2960   -7.2212   -3.9399 C.1     1  LIG1        0.0992
@<TRIPOS>BOND
     1    45    40    1
     2    47    48    3
     3    33    31    1
     4    40    38   ar
     5    40    43   ar
     6    48    43    1
     7    41    38    1
     8    38    37   ar
     9    43    42   ar
    10    31    34    1
    11    31    32    1
    12    31    24    1
    13    37    46    1
    14    37    39   ar
    15    42    44    1
    16    42    39   ar
    17    29    24   ar
    18    29    28   ar
    19    39    28    1
    20    24    25   ar
    21    28    27   ar
    22    25    17    1
    23    25    26   ar
    24    27    26   ar
    25    27    35    1
    26    18    17   ar
    27    18    14   ar
    28    17    16   ar
    29    26    30    1
    30    35    36    1
    31    12    13    3
    32    13     7    1
    33     7     4   ar
    34     7     6   ar
    35    14     4    1
    36    14    15   ar
    37     4     2   ar
    38     6     8    1
    39     6     3   ar
    40     2     1   ar
    41     2     5    1
    42     3     1   ar
    43     3     9    1
    44     1    10    1
    45    10    11    1
    46    16    23    1
    47    16    15   ar
    48    23    22    3
    49    15    19    1
    50    21    19    1
    51    20    19    1
