@<TRIPOS>MOLECULE
mol_data/noopt/geoms/mol2/4fd4ie(70)12hi(270)12if(60).out
 52 55 0 0 0
SMALL
GASTEIGER

@<TRIPOS>ATOM
      1 C           0.0509    0.0309    0.0002 C.ar    1  LIG1        0.1175
      2 C           1.4592    0.0309    0.0002 C.ar    1  LIG1       -0.0112
      3 C          -0.6045    1.2792    0.0002 C.ar    1  LIG1       -0.0189
      4 C           2.1849    1.2200   -0.0004 C.ar    1  LIG1        0.0032
      5 H           1.9850   -0.9213    0.0004 H       1  LIG1        0.0660
      6 C           0.1195    2.4666   -0.0004 C.ar    1  LIG1       -0.0403
      7 C           1.5181    2.4458   -0.0008 C.ar    1  LIG1        0.0597
      8 H          -0.4090    3.4165   -0.0003 H       1  LIG1        0.0632
      9 H          -1.9035    1.3287    0.0016 H       1  LIG1        0.0654
     10 O          -0.5709   -1.1108    0.0005 O.3     1  LIG1       -0.5067
     11 H           0.0706   -1.8250    0.0006 H       1  LIG1        0.2921
     12 N           2.7818    4.5408   -0.0016 N.1     1  LIG1       -0.1909
     13 C           2.1896    3.5590   -0.0012 C.1     1  LIG1        0.0998
     14 C           4.1747    0.7459    1.1484 C.ar    1  LIG1       -0.0420
     15 C           5.5820    0.7257    1.0984 C.ar    1  LIG1       -0.0463
     16 C           3.4843    1.1831   -0.0005 C.ar    1  LIG1       -0.0124
     17 C           6.2733    1.1223   -0.0441 C.ar    1  LIG1        0.0348
     18 H           6.1345    0.3921    1.9740 H       1  LIG1        0.0628
     19 C           4.1740    1.5791   -1.1414 C.ar    1  LIG1       -0.0376
     20 C           5.5722    1.5515   -1.1716 C.ar    1  LIG1        0.0360
     21 H           3.6189    1.9123   -2.0146 H       1  LIG1        0.0636
     22 C           3.5858    0.3638    2.2429 C.3     1  LIG1       -0.0391
     23 H           4.2559   -0.2428    2.8155 H       1  LIG1        0.0278
     24 H           2.7119   -0.2034    1.9984 H       1  LIG1        0.0278
     25 H           3.3048    1.2229    2.8154 H       1  LIG1        0.0278
     26 C           6.2115    1.9230   -2.2409 C.1     1  LIG1       -0.0689
     27 C           6.8022    2.2663   -3.2288 C.1     1  LIG1       -0.1139
     28 H           7.3284    2.5720   -4.1089 H       1  LIG1        0.1232
     29 C           7.5729    1.0909   -0.0556 C.ar    1  LIG1        0.1578
     30 C           8.5474    1.0674   -1.0317 C.ar    1  LIG1        0.0747
     31 C           9.8218    1.0366   -0.3449 C.ar    1  LIG1        0.0197
     32 C           9.5414    1.0435    1.0060 C.ar    1  LIG1        0.1756
     33 O           8.1615    1.0769    1.2097 O.2     1  LIG1       -0.4495
     34 N           8.3822    1.0713   -2.3212 N.pl3   1  LIG1       -0.3548
     35 H           8.8265    1.8775   -2.7117 H       1  LIG1        0.1424
     36 H           8.7882    0.2450   -2.7118 H       1  LIG1        0.1424
     37 C          10.9899    1.0084   -0.9157 C.3     1  LIG1       -0.0342
     38 H          11.5527    1.8687   -0.6190 H       1  LIG1        0.0279
     39 H          10.8675    1.0115   -1.9787 H       1  LIG1        0.0279
     40 H          11.5104    0.1219   -0.6191 H       1  LIG1        0.0279
     41 C          10.2460    1.0265    2.0984 C.ar    1  LIG1        0.1765
     42 C          10.0876    0.4978    3.3626 C.ar    1  LIG1        0.0398
     43 C          11.2742    0.8534    4.1126 C.ar    1  LIG1        0.1581
     44 C          12.0794    1.5761    3.2565 C.ar    1  LIG1        0.1343
     45 O          11.4671    1.6962    2.0085 O.2     1  LIG1       -0.4558
     46 H          13.2412    2.1528    3.3433 H       1  LIG1        0.1068
     47 C           9.0815   -0.1886    3.8179 C.3     1  LIG1       -0.0325
     48 H           9.4437   -0.9991    4.4153 H       1  LIG1        0.0280
     49 H           8.5137   -0.5760    2.9978 H       1  LIG1        0.0280
     50 H           8.4590    0.4444    4.4152 H       1  LIG1        0.0280
     51 O          11.5096    0.5393    5.3520 O.3     1  LIG1       -0.5034
     52 H          12.2918    1.0046    5.6575 H       1  LIG1        0.2923
@<TRIPOS>BOND
     1    28    27    1
     2    27    26    3
     3    36    34    1
     4    35    34    1
     5    34    30    1
     6    26    20    1
     7    21    19    1
     8    39    37    1
     9    20    19   ar
    10    20    17   ar
    11    19    16   ar
    12    30    31   ar
    13    30    29   ar
    14    37    40    1
    15    37    38    1
    16    37    31    1
    17    31    32   ar
    18    29    17    1
    19    29    33   ar
    20    17    15   ar
    21    12    13    3
    22    13     7    1
    23     7     6   ar
    24     7     4   ar
    25    16     4    1
    26    16    14   ar
    27     6     8    1
    28     6     3   ar
    29     4     2   ar
    30     1     3   ar
    31     1     2   ar
    32     1    10    1
    33     3     9    1
    34     2     5    1
    35    10    11    1
    36    32    33   ar
    37    32    41    1
    38    15    14   ar
    39    15    18    1
    40    14    22    1
    41    24    22    1
    42    45    41   ar
    43    45    44   ar
    44    41    42   ar
    45    22    25    1
    46    22    23    1
    47    49    47    1
    48    44    46    1
    49    44    43   ar
    50    42    47    1
    51    42    43   ar
    52    47    50    1
    53    47    48    1
    54    43    51    1
    55    51    52    1
