@<TRIPOS>MOLECULE
mol_data/noopt/geoms/mol2/4fd4af4da6ei-13hl13ef13ia-6li-.out
 102 108 0 0 0
SMALL
GASTEIGER

@<TRIPOS>ATOM
      1 C           0.0509    0.0309    0.0002 C.ar    1  LIG1        0.1175
      2 C           1.4592    0.0309    0.0002 C.ar    1  LIG1       -0.0112
      3 C          -0.6045    1.2792    0.0002 C.ar    1  LIG1       -0.0189
      4 C           2.1849    1.2200   -0.0004 C.ar    1  LIG1        0.0030
      5 H           1.9850   -0.9213    0.0004 H       1  LIG1        0.0660
      6 C           0.1195    2.4666   -0.0004 C.ar    1  LIG1       -0.0403
      7 C           1.5181    2.4458   -0.0008 C.ar    1  LIG1        0.0597
      8 H          -0.4090    3.4165   -0.0003 H       1  LIG1        0.0632
      9 H          -1.9035    1.3287    0.0016 H       1  LIG1        0.0654
     10 O          -0.5709   -1.1108    0.0005 O.3     1  LIG1       -0.5067
     11 H           0.0706   -1.8250    0.0006 H       1  LIG1        0.2921
     12 N           2.7818    4.5408   -0.0016 N.1     1  LIG1       -0.1909
     13 C           2.1896    3.5590   -0.0012 C.1     1  LIG1        0.0998
     14 C           4.1518   -0.0588    0.0002 C.ar    1  LIG1       -0.0532
     15 C           5.5600   -0.0451    0.0016 C.ar    1  LIG1       -0.0499
     16 C           3.4843    1.1831   -0.0005 C.ar    1  LIG1       -0.0131
     17 C           6.2742    1.1510    0.0017 C.ar    1  LIG1        0.0248
     18 H           6.0950   -0.9922    0.0024 H       1  LIG1        0.0625
     19 C           4.1968    2.3775   -0.0004 C.ar    1  LIG1       -0.0118
     20 C           5.5955    2.3702    0.0006 C.ar    1  LIG1        0.1251
     21 H           3.6591    3.3222   -0.0009 H       1  LIG1        0.0660
     22 H           3.5412   -1.2064   -0.0001 H       1  LIG1        0.0624
     23 O           6.2562    3.4899    0.0008 O.3     1  LIG1       -0.5061
     24 H           5.6396    4.2257    0.0009 H       1  LIG1        0.2922
     25 C           8.2534   -0.1087    0.0043 C.ar    1  LIG1        0.0601
     26 C           9.6614   -0.0814    0.0071 C.ar    1  LIG1       -0.0360
     27 C           7.5739    1.1267    0.0029 C.ar    1  LIG1        0.0030
     28 C          10.3639    1.1216    0.0079 C.ar    1  LIG1       -0.0140
     29 H          10.2056   -1.0232    0.0084 H       1  LIG1        0.0637
     30 C           8.2747    2.3279    0.0036 C.ar    1  LIG1       -0.0521
     31 C           9.6734    2.3342    0.0060 C.ar    1  LIG1       -0.0533
     32 H           7.7279    3.2674    0.0026 H       1  LIG1        0.0624
     33 N           7.1251   -2.2796    0.0027 N.1     1  LIG1       -0.1908
     34 C           7.6539   -1.2622    0.0034 C.1     1  LIG1        0.0998
     35 H          10.3232    3.4602    0.0069 H       1  LIG1        0.0624
     36 C          12.3859    2.3172   -0.0093 C.ar    1  LIG1        0.1216
     37 C          11.6638    1.1099    0.0104 C.ar    1  LIG1        0.0166
     38 C          12.3744   -0.0916    0.0328 C.ar    1  LIG1       -0.0415
     39 C          13.7696   -0.0472    0.0346 C.ar    1  LIG1        0.0124
     40 C          14.4015    1.2096    0.0137 C.ar    1  LIG1        0.0982
     41 N          13.7317    2.3785   -0.0078 N.ar    1  LIG1       -0.2357
     42 H          11.8447   -1.0547    0.0475 H       1  LIG1        0.0631
     43 C          11.7691    3.4614   -0.0304 C.1     1  LIG1       -0.0492
     44 C          11.1992    4.5186   -0.0499 C.1     1  LIG1       -0.1124
     45 H          10.6915    5.4603   -0.0672 H       1  LIG1        0.1232
     46 C          14.4768   -1.1382    0.0548 C.3     2  LIG2       -0.0681
     47 H          15.3996   -0.9557    0.5648 H       1  LIG1        0.0227
     48 H          14.6794   -1.4507   -0.9483 H       1  LIG1        0.0227
     49 H          13.9334   -1.9061    0.5647 H       1  LIG1        0.0227
     50 C          15.6982    1.3027    0.0146 C.ar    1  LIG1        0.0907
     51 C          16.6519    0.3340    0.0148 C.ar    1  LIG1        0.0947
     52 C          17.9258    0.9881    0.0170 C.ar    1  LIG1        0.1679
     53 C          17.6946    2.3277    0.0162 C.ar    1  LIG1        0.1088
     54 N          16.3321    2.5247    0.0152 N.ar    1  LIG1       -0.3473
     55 H          15.8781    3.4090    0.0144 H       1  LIG1        0.1662
     56 N          16.4423   -0.9490    0.0147 N.pl3   1  LIG1       -0.3534
     57 H          15.5827   -1.1462   -0.4568 H       1  LIG1        0.1425
     58 H          17.1943   -1.4096   -0.4568 H       1  LIG1        0.1425
     59 O          19.0907    0.4108    0.0188 O.3     1  LIG1       -0.4911
     60 C          18.9198   -1.0089    0.0195 C.3     1  LIG1        0.0790
     61 H          19.8787   -1.4836    0.0208 H       1  LIG1        0.0660
     62 H          18.3754   -1.3023    0.8927 H       1  LIG1        0.0660
     63 H          18.3774   -1.3033   -0.8546 H       1  LIG1        0.0660
     64 C          18.5258    3.3272    0.0174 C.ar    1  LIG1        0.0863
     65 C          19.8850    3.3440    0.0344 C.ar    1  LIG1        0.0935
     66 C          20.2959    4.7157    0.0279 C.ar    1  LIG1        0.1595
     67 C          19.1698    5.4769    0.0054 C.ar    1  LIG1        0.1069
     68 N          18.0838    4.6309   -0.0007 N.ar    1  LIG1       -0.3479
     69 H          17.1317    4.9160   -0.0162 H       1  LIG1        0.1661
     70 C          20.6648    2.3040    0.0545 C.1     1  LIG1       -0.0638
     71 C          21.3853    1.3431    0.0731 C.1     1  LIG1       -0.1137
     72 H          22.0271    0.4871    0.0897 H       1  LIG1        0.1232
     73 O          21.5191    5.1559    0.0406 O.3     1  LIG1       -0.5034
     74 H          21.5141    6.1159    0.0437 H       1  LIG1        0.2923
     75 C          19.0249    6.7688   -0.0083 C.ar    1  LIG1        0.0699
     76 C          19.9545    7.7606   -0.0014 C.ar    1  LIG1       -0.0231
     77 C          19.2501    9.0072   -0.0230 C.ar    1  LIG1       -0.0327
     78 C          17.9210    8.7223   -0.0440 C.ar    1  LIG1        0.0523
     79 N          17.7787    7.3530   -0.0346 N.ar    1  LIG1       -0.3526
     80 H          16.9134    6.8639   -0.0457 H       1  LIG1        0.1660
     81 C          21.2450    7.6026    0.0222 C.3     1  LIG1       -0.0376
     82 H          21.6961    8.4275    0.5330 H       1  LIG1        0.0278
     83 H          21.6171    7.5571   -0.9800 H       1  LIG1        0.0278
     84 H          21.4837    6.6932    0.5329 H       1  LIG1        0.0278
     85 H          19.7801   10.1942   -0.0231 H       1  LIG1        0.0642
     86 C          15.5869    8.9812   -0.1021 C.ar    1  LIG1        0.2238
     87 C          16.8892    9.5126   -0.0680 C.ar    1  LIG1        0.0600
     88 C          17.0430   10.9002   -0.0603 C.ar    1  LIG1       -0.0432
     89 C          15.9013   11.7030   -0.0869 C.ar    1  LIG1       -0.0315
     90 C          14.6413   11.0778   -0.1204 C.ar    1  LIG1        0.0343
     91 N          14.4747    9.7408   -0.1281 N.ar    1  LIG1       -0.2205
     92 H          18.0448   11.3519   -0.0349 H       1  LIG1        0.0629
     93 H          13.5492   11.7824   -0.1460 H       1  LIG1        0.0833
     94 O          15.3926    7.6958   -0.1104 O.3     1  LIG1       -0.4792
     95 C          13.9884    7.4254   -0.1135 C.3     1  LIG1        0.0804
     96 H          13.8289    6.3673   -0.1205 H       1  LIG1        0.0660
     97 H          13.5419    7.8475    0.7625 H       1  LIG1        0.0660
     98 H          13.5436    7.8588   -0.9848 H       1  LIG1        0.0660
     99 C          15.9914   13.0002   -0.0813 C.3     1  LIG1       -0.0383
    100 H          15.1444   13.4144    0.4247 H       1  LIG1        0.0278
    101 H          16.0164   13.3604   -1.0886 H       1  LIG1        0.0278
    102 H          16.8876   13.2932    0.4246 H       1  LIG1        0.0278
@<TRIPOS>BOND
     1   101    99    1
     2    98    95    1
     3    83    81    1
     4    48    46    1
     5    63    60    1
     6    58    56    1
     7    57    56    1
     8    93    90    1
     9    91    90   ar
    10    91    86   ar
    11    96    95    1
    12    90    89   ar
    13    95    94    1
    14    95    97    1
    15    94    86    1
    16    86    87   ar
    17    89    99    1
    18    89    88   ar
    19    99   102    1
    20    99   100    1
    21    87    88   ar
    22    87    78    1
    23    45    44    1
    24    88    92    1
    25    44    43    3
    26    80    79    1
    27    78    79   ar
    28    78    77   ar
    29    79    75   ar
    30    43    36    1
    31    85    77    1
    32    77    76   ar
    33    69    68    1
    34    36    41   ar
    35    36    37   ar
    36    75    76   ar
    37    75    67    1
    38    41    40   ar
    39    12    13    3
    40    76    81    1
    41    13     7    1
    42    21    19    1
    43     7     4   ar
    44     7     6   ar
    45    68    67   ar
    46    68    64   ar
    47    16    19   ar
    48    16     4    1
    49    16    14   ar
    50    19    20   ar
    51     4     2   ar
    52     6     8    1
    53     6     3   ar
    54    22    14    1
    55     1     3   ar
    56     1     2   ar
    57     1    10    1
    58     3     9    1
    59     2     5    1
    60    14    15   ar
    61    10    11    1
    62    20    23    1
    63    20    17   ar
    64    23    24    1
    65    15    17   ar
    66    15    18    1
    67    17    27    1
    68    32    30    1
    69    33    34    3
    70    27    30   ar
    71    27    25   ar
    72    34    25    1
    73    30    31   ar
    74    25    26   ar
    75    67    66   ar
    76    31    35    1
    77    31    28   ar
    78    26    28   ar
    79    26    29    1
    80    28    37    1
    81    37    38   ar
    82    40    50    1
    83    40    39   ar
    84    55    54    1
    85    50    51   ar
    86    50    54   ar
    87    56    51    1
    88    51    52   ar
    89    54    53   ar
    90    53    52   ar
    91    53    64    1
    92    52    59    1
    93    64    65   ar
    94    59    60    1
    95    60    61    1
    96    60    62    1
    97    81    84    1
    98    81    82    1
    99    66    65   ar
   100    66    73    1
   101    38    39   ar
   102    38    42    1
   103    65    70    1
   104    73    74    1
   105    70    71    3
   106    46    49    1
   107    46    47    1
   108    71    72    1
