@<TRIPOS>MOLECULE
mol_data/noopt/geoms/mol2/4fd4ih12ei-13il-.out
 56 59 0 0 0
SMALL
GASTEIGER

@<TRIPOS>ATOM
      1 C           0.0509    0.0309    0.0002 C.ar    1  LIG1        0.1175
      2 C           1.4592    0.0309    0.0002 C.ar    1  LIG1       -0.0112
      3 C          -0.6045    1.2792    0.0002 C.ar    1  LIG1       -0.0189
      4 C           2.1849    1.2200   -0.0004 C.ar    1  LIG1        0.0032
      5 H           1.9850   -0.9213    0.0004 H       1  LIG1        0.0660
      6 C           0.1195    2.4666   -0.0004 C.ar    1  LIG1       -0.0403
      7 C           1.5181    2.4458   -0.0008 C.ar    1  LIG1        0.0597
      8 H          -0.4090    3.4165   -0.0003 H       1  LIG1        0.0632
      9 H          -1.9035    1.3287    0.0016 H       1  LIG1        0.0654
     10 O          -0.5709   -1.1108    0.0005 O.3     1  LIG1       -0.5067
     11 H           0.0706   -1.8250    0.0006 H       1  LIG1        0.2921
     12 N           2.7818    4.5408   -0.0016 N.1     1  LIG1       -0.1909
     13 C           2.1896    3.5590   -0.0012 C.1     1  LIG1        0.0998
     14 C           4.1518   -0.0588    0.0002 C.ar    1  LIG1       -0.0419
     15 C           5.5600   -0.0451    0.0016 C.ar    1  LIG1       -0.0458
     16 C           3.4843    1.1831   -0.0005 C.ar    1  LIG1       -0.0119
     17 C           6.2742    1.1510    0.0017 C.ar    1  LIG1        0.0394
     18 H           6.0950   -0.9922    0.0024 H       1  LIG1        0.0628
     19 C           4.1968    2.3775   -0.0004 C.ar    1  LIG1       -0.0323
     20 C           5.5955    2.3702    0.0006 C.ar    1  LIG1        0.0360
     21 H           3.6591    3.3222   -0.0009 H       1  LIG1        0.0642
     22 C           3.5410   -1.2067   -0.0001 C.3     1  LIG1       -0.0391
     23 H           4.1447   -1.9321    0.5043 H       1  LIG1        0.0278
     24 H           3.3736   -1.5215   -1.0090 H       1  LIG1        0.0278
     25 H           2.6021   -1.1113    0.5042 H       1  LIG1        0.0278
     26 N           6.2562    3.4899    0.0008 N.pl3   1  LIG1       -0.3574
     27 H           7.1288    3.3621   -0.4705 H       1  LIG1        0.1423
     28 H           5.7224    4.1919   -0.4706 H       1  LIG1        0.1423
     29 C           7.5739    1.1267    0.0029 C.ar    1  LIG1        0.1531
     30 C           8.5390    0.1411    0.0186 C.ar    1  LIG1        0.0740
     31 C           9.8206    0.8153    0.0091 C.ar    1  LIG1        0.0128
     32 C           9.5534    2.1688   -0.0119 C.ar    1  LIG1        0.1562
     33 O           8.1751    2.3860   -0.0162 O.2     1  LIG1       -0.4518
     34 C           8.3611   -1.1465    0.0383 C.1     1  LIG1       -0.0656
     35 C           8.1967   -2.3363    0.0565 C.1     1  LIG1       -0.1138
     36 H           8.0503   -3.3961    0.0727 H       1  LIG1        0.1232
     37 C          10.9832    0.2331    0.0187 C.3     1  LIG1       -0.0349
     38 H          11.6900    0.8563    0.5258 H       1  LIG1        0.0279
     39 H          11.3089    0.0701   -0.9874 H       1  LIG1        0.0279
     40 H          10.9076   -0.7061    0.5257 H       1  LIG1        0.0279
     41 C          10.2689    3.2540   -0.0281 C.ar    1  LIG1        0.0889
     42 C          11.6180    3.4208   -0.0394 C.ar    1  LIG1        0.0195
     43 C          11.8746    4.8295   -0.0544 C.ar    1  LIG1        0.1409
     44 C          10.6711    5.4616   -0.0534 C.ar    1  LIG1        0.0447
     45 N           9.6853    4.5008   -0.0368 N.ar    1  LIG1       -0.3550
     46 H           8.7075    4.6790   -0.0325 H       1  LIG1        0.1655
     47 H          10.3842    6.7295   -0.0641 H       1  LIG1        0.0844
     48 C          12.5084    2.4732   -0.0355 C.3     1  LIG1       -0.0341
     49 H          13.3883    2.8125    0.4699 H       1  LIG1        0.0279
     50 H          12.7547    2.2111   -1.0433 H       1  LIG1        0.0279
     51 H          12.1149    1.6161    0.4699 H       1  LIG1        0.0279
     52 O          13.0417    5.4021   -0.0672 O.3     1  LIG1       -0.4933
     53 C          14.0639    4.4022   -0.0720 C.3     1  LIG1        0.0789
     54 H          15.0243    4.8738   -0.0827 H       1  LIG1        0.0660
     55 H          13.9741    3.7960    0.8052 H       1  LIG1        0.0660
     56 H          13.9584    3.7883   -0.9420 H       1  LIG1        0.0660
@<TRIPOS>BOND
     1    50    48    1
     2    24    22    1
     3    39    37    1
     4    56    53    1
     5    28    26    1
     6    27    26    1
     7    54    53    1
     8    53    52    1
     9    53    55    1
    10    52    43    1
    11    47    44    1
    12    43    44   ar
    13    43    42   ar
    14    44    45   ar
    15    42    48    1
    16    42    41   ar
    17    45    46    1
    18    45    41   ar
    19    48    51    1
    20    48    49    1
    21    41    32    1
    22    33    32   ar
    23    33    29   ar
    24    32    31   ar
    25    12    13    3
    26    13     7    1
    27    21    19    1
    28     7     6   ar
    29     7     4   ar
    30    16    19   ar
    31    16     4    1
    32    16    14   ar
    33    19    20   ar
    34     6     8    1
    35     6     3   ar
    36     4     2   ar
    37    22    14    1
    38    22    25    1
    39    22    23    1
    40     1     2   ar
    41     1     3   ar
    42     1    10    1
    43     2     5    1
    44     3     9    1
    45    14    15   ar
    46    10    11    1
    47    20    26    1
    48    20    17   ar
    49    15    17   ar
    50    15    18    1
    51    17    29    1
    52    29    30   ar
    53    31    30   ar
    54    31    37    1
    55    30    34    1
    56    37    40    1
    57    37    38    1
    58    34    35    3
    59    35    36    1
