@<TRIPOS>MOLECULE
mol_data/noopt/geoms/mol2/4fd4el(350)4fl(20)6fl(350).out
 59 59 0 0 0
SMALL
GASTEIGER

@<TRIPOS>ATOM
      1 C           0.0509    0.0309    0.0002 C.ar    1  LIG1        0.1175
      2 C           1.4592    0.0309    0.0002 C.ar    1  LIG1       -0.0112
      3 C          -0.6045    1.2792    0.0002 C.ar    1  LIG1       -0.0189
      4 C           2.1849    1.2200   -0.0004 C.ar    1  LIG1        0.0042
      5 H           1.9850   -0.9213    0.0004 H       1  LIG1        0.0660
      6 C           0.1195    2.4666   -0.0004 C.ar    1  LIG1       -0.0403
      7 C           1.5181    2.4458   -0.0008 C.ar    1  LIG1        0.0597
      8 H          -0.4090    3.4165   -0.0003 H       1  LIG1        0.0632
      9 H          -1.9035    1.3287    0.0016 H       1  LIG1        0.0654
     10 O          -0.5709   -1.1108    0.0005 O.3     1  LIG1       -0.5067
     11 H           0.0706   -1.8250    0.0006 H       1  LIG1        0.2921
     12 N           2.7818    4.5408   -0.0016 N.1     1  LIG1       -0.1909
     13 C           2.1896    3.5590   -0.0012 C.1     1  LIG1        0.0998
     14 C           4.1523   -0.0404   -0.2121 C.ar    1  LIG1        0.0332
     15 C           5.5605   -0.0278   -0.2014 C.ar    1  LIG1       -0.0342
     16 C           3.4843    1.1831   -0.0005 C.ar    1  LIG1        0.0025
     17 C           6.2741    1.1498    0.0098 C.ar    1  LIG1        0.0336
     18 H           6.0959   -0.9608   -0.3624 H       1  LIG1        0.0637
     19 C           4.1963    2.3590    0.2104 C.ar    1  LIG1       -0.0054
     20 C           5.5950    2.3511    0.2170 C.ar    1  LIG1        0.1874
     21 H           3.6582    3.2897    0.3713 H       1  LIG1        0.0662
     22 C           3.5422   -1.1703   -0.4145 C.1     1  LIG1       -0.0690
     23 C           2.9784   -2.2143   -0.6016 C.1     1  LIG1       -0.1139
     24 H           2.4762   -3.1443   -0.7683 H       1  LIG1        0.1232
     25 O           6.2552    3.4534    0.4148 O.3     1  LIG1       -0.2872
     26 C           7.6540    3.1655    0.4874 C.3     2  LIG2       -0.0681
     27 H           8.1970    4.0730    0.6500 H       1  LIG1        0.0227
     28 H           7.8377    2.4901    1.2967 H       1  LIG1        0.0227
     29 H           7.9741    2.7179   -0.4302 H       1  LIG1        0.0227
     30 C           8.2532   -0.0365    0.4338 C.ar    1  LIG1        0.1255
     31 C           9.6613   -0.0123    0.4205 C.ar    1  LIG1       -0.0081
     32 C           7.5738    1.1251    0.0132 C.ar    1  LIG1        0.0309
     33 C          10.3638    1.1171    0.0066 C.ar    1  LIG1        0.0345
     34 H          10.2054   -0.8979    0.7413 H       1  LIG1        0.0661
     35 C           8.2747    2.2529   -0.4001 C.ar    1  LIG1       -0.0030
     36 C           9.6735    2.2572   -0.4066 C.ar    1  LIG1        0.1875
     37 H           7.7280    3.1364   -0.7198 H       1  LIG1        0.0663
     38 O           7.6537   -1.1197    0.8303 O.3     1  LIG1       -0.5061
     39 H           8.2977   -1.8249    0.9280 H       1  LIG1        0.2922
     40 O          10.3233    3.3145   -0.7939 O.3     1  LIG1       -0.2872
     41 C          11.7103    2.9968   -0.9361 C.3     3  LIG3       -0.0531
     42 H          12.2447    3.8672   -1.2551 H       2  LIG2        0.0265
     43 H          12.0984    2.6646    0.0041 H       0  HOH0        0.2052
     44 H          11.8257    2.2209   -1.6638 H       2  LIG2        0.0265
     45 C          12.3863    2.2934    0.2178 C.ar    1  LIG1        0.0977
     46 C          11.6638    1.1047    0.0069 C.ar    1  LIG1        0.0168
     47 C          12.3739   -0.0793   -0.2002 C.ar    1  LIG1       -0.0085
     48 C          13.7692   -0.0366   -0.1899 C.ar    1  LIG1        0.1387
     49 C          14.4015    1.2010    0.0293 C.ar    1  LIG1        0.0700
     50 N          13.7320    2.3527    0.2309 N.ar    1  LIG1       -0.2492
     51 H          11.8439   -1.0273   -0.3693 H       1  LIG1        0.0661
     52 H          15.6982    1.2917    0.0479 H       1  LIG1        0.0867
     53 O          11.7698    3.4208    0.4152 O.3     4  HOH4       -0.4105
     54 H          10.8239    3.2646    0.4638 H       0  HOH0        0.2052
     55 O          14.4758   -1.1115   -0.3779 O.3     1  LIG1       -0.4936
     56 C          13.6089   -2.2466   -0.4470 C.3     1  LIG1        0.0789
     57 H          14.1909   -3.1310   -0.6020 H       1  LIG1        0.0660
     58 H          13.0630   -2.3348    0.4691 H       1  LIG1        0.0660
     59 H          12.9240   -2.1234   -1.2598 H       1  LIG1        0.0660
@<TRIPOS>BOND
     1    44    41    1
     2    59    56    1
     3    42    41    1
     4    40    36    1
     5    24    23    1
     6    37    35    1
     7    57    56    1
     8    23    22    3
     9    56    55    1
    10    56    58    1
    11    29    26    1
    12    22    14    1
    13    36    35   ar
    14    36    33   ar
    15    35    32   ar
    16    55    48    1
    17    51    47    1
    18    18    15    1
    19    14    15   ar
    20    14    16   ar
    21    15    17   ar
    22    47    48   ar
    23    47    46   ar
    24    48    49   ar
    25    12    13    3
    26    13     7    1
    27     7     6   ar
    28     7     4   ar
    29    16     4    1
    30    16    19   ar
    31     6     8    1
    32     6     3   ar
    33     4     2   ar
    34     1     2   ar
    35     1     3   ar
    36     1    10    1
    37     2     5    1
    38     3     9    1
    39    10    11    1
    40    43    53    1
    41    33    46    1
    42    33    31   ar
    43    46    45   ar
    44    17    32    1
    45    17    20   ar
    46    32    30   ar
    47    49    52    1
    48    49    50   ar
    49    19    20   ar
    50    19    21    1
    51    20    25    1
    52    45    50   ar
    53    53    54    1
    54    31    30   ar
    55    31    34    1
    56    30    38    1
    57    26    27    1
    58    26    28    1
    59    38    39    1
