@<TRIPOS>MOLECULE
mol_data/noopt/geoms/mol2/4fd6hl12il6lh-.out
 58 60 0 0 0
SMALL
GASTEIGER

@<TRIPOS>ATOM
      1 C           0.0509    0.0309    0.0002 C.ar    1  LIG1        0.1175
      2 C           1.4592    0.0309    0.0002 C.ar    1  LIG1       -0.0117
      3 C          -0.6045    1.2792    0.0002 C.ar    1  LIG1       -0.0195
      4 C           2.1849    1.2200   -0.0004 C.ar    1  LIG1       -0.0024
      5 H           1.9850   -0.9213    0.0004 H       1  LIG1        0.0660
      6 C           0.1195    2.4666   -0.0004 C.ar    1  LIG1       -0.0491
      7 C           1.5181    2.4458   -0.0008 C.ar    1  LIG1        0.0028
      8 H          -0.4090    3.4165   -0.0003 H       1  LIG1        0.0625
      9 H          -1.9035    1.3287    0.0016 H       1  LIG1        0.0654
     10 O          -0.5709   -1.1108    0.0005 O.3     1  LIG1       -0.5067
     11 H           0.0706   -1.8250    0.0006 H       1  LIG1        0.2921
     12 N           2.7818    4.5408   -0.0016 N.2     1  LIG1       -0.1571
     13 C           2.1896    3.5590   -0.0012 C.2     1  LIG1        0.0576
     14 C           4.2297    2.3764   -0.0004 C.ar    1  LIG1        0.1437
     15 C           3.4844    1.1831   -0.0005 C.ar    1  LIG1        0.0277
     16 C           4.1715   -0.0322   -0.0004 C.ar    1  LIG1       -0.0016
     17 C           5.5673   -0.0149   -0.0004 C.ar    1  LIG1        0.2085
     18 C           6.2235    1.2297   -0.0005 C.ar    1  LIG1        0.1550
     19 N           5.5764    2.4115   -0.0004 N.ar    1  LIG1       -0.2232
     20 H           3.6233   -0.9849   -0.0015 H       1  LIG1        0.0664
     21 N           3.6351    3.5325   -0.0004 N.pl3   1  LIG1       -0.2488
     22 H           4.2088    4.2023   -0.4718 H       1  LIG1        0.1715
     23 H           2.7566    3.4555   -0.4718 H       1  LIG1        0.0854
     24 O           6.2532   -1.1193   -0.0005 O.3     1  LIG1       -0.2855
     25 C           5.3598   -2.2359   -0.0006 C.3     2  LIG2       -0.0681
     26 H           5.9246   -3.1446   -0.0008 H       1  LIG1        0.0227
     27 H           4.7432   -2.1994    0.8732 H       1  LIG1        0.0227
     28 H           4.7430   -2.1991   -0.8741 H       1  LIG1        0.0227
     29 C           7.5217    1.2976   -0.0004 C.ar    1  LIG1        0.1642
     30 C           8.5543    0.3828   -0.0003 C.ar    1  LIG1        0.0393
     31 C           9.7848    1.1462   -0.0002 C.ar    1  LIG1        0.1693
     32 C           9.4223    2.4775   -0.0003 C.ar    1  LIG1        0.1825
     33 O           8.0321    2.5965   -0.0005 O.2     1  LIG1       -0.4489
     34 C           8.4681   -0.9146   -0.0002 C.3     1  LIG1       -0.0325
     35 H           9.3162   -1.3284    0.5042 H       1  LIG1        0.0280
     36 H           8.4445   -1.2706   -1.0090 H       1  LIG1        0.0280
     37 H           7.5727   -1.2125    0.5042 H       1  LIG1        0.0280
     38 O          10.9855    0.6480   -0.0001 O.3     1  LIG1       -0.4910
     39 C          10.9097   -0.7800   -0.0002 C.3     1  LIG1        0.0790
     40 H          11.8982   -1.1897   -0.0002 H       1  LIG1        0.0660
     41 H          10.3872   -1.1095    0.8736 H       1  LIG1        0.0660
     42 H          10.3870   -1.1094   -0.8737 H       1  LIG1        0.0660
     43 C           9.3493    4.8254   -0.0213 C.ar    1  LIG1        0.2256
     44 C          10.0591    3.6109   -0.0003 C.ar    1  LIG1        0.0841
     45 C          11.4544    3.6543    0.0208 C.ar    1  LIG1       -0.0236
     46 C          12.0880    4.8982    0.0199 C.ar    1  LIG1        0.0438
     47 C          11.2913    6.0576   -0.0021 C.ar    1  LIG1        0.0520
     48 N           9.9443    6.0340   -0.0224 N.ar    1  LIG1       -0.2189
     49 H          12.0429    2.7261    0.0365 H       1  LIG1        0.0645
     50 H          11.8347    7.2386   -0.0037 H       1  LIG1        0.0849
     51 O           8.0495    4.8364   -0.0412 O.3     1  LIG1       -0.4792
     52 C           7.5837    6.1884   -0.0486 C.3     1  LIG1        0.0804
     53 H           6.5139    6.1970   -0.0651 H       1  LIG1        0.0660
     54 H           7.9308    6.6901    0.8305 H       1  LIG1        0.0660
     55 H           7.9579    6.6899   -0.9165 H       1  LIG1        0.0660
     56 N          13.3845    4.9920    0.0389 N.pl3   1  LIG1       -0.3568
     57 H          13.7826    4.2021   -0.4277 H       1  LIG1        0.1424
     58 H          13.6648    5.8309   -0.4277 H       1  LIG1        0.1424
@<TRIPOS>BOND
     1    36    34    1
     2    55    52    1
     3    28    25    1
     4    42    39    1
     5    23    13    1
     6    22    21    1
     7    58    56    1
     8    57    56    1
     9    53    52    1
    10    52    51    1
    11    52    54    1
    12    51    43    1
    13    48    43   ar
    14    48    47   ar
    15    43    44   ar
    16    50    47    1
    17    47    46   ar
    18    12    13    2
    19    20    16    1
    20    13     7    1
    21    26    25    1
    22     7     6   ar
    23     7     4   ar
    24    25    27    1
    25    33    29   ar
    26    33    32   ar
    27    15     4    1
    28    15    14   ar
    29    15    16   ar
    30    18    19   ar
    31    18    29    1
    32    18    17   ar
    33    24    17    1
    34     6     8    1
    35     6     3   ar
    36     4     2   ar
    37    14    21    1
    38    14    19   ar
    39    16    17   ar
    40    29    30   ar
    41    32    44    1
    42    32    31   ar
    43    30    34    1
    44    30    31   ar
    45    44    45   ar
    46    40    39    1
    47    34    37    1
    48    34    35    1
    49    31    38    1
    50    39    38    1
    51    39    41    1
    52     1     2   ar
    53     1     3   ar
    54     1    10    1
    55     2     5    1
    56     3     9    1
    57    10    11    1
    58    46    45   ar
    59    46    56    1
    60    45    49    1
