@<TRIPOS>MOLECULE
mol_data/noopt/geoms/mol2/4fe12ll13if-6aa.out
 51 53 0 0 0
SMALL
GASTEIGER

@<TRIPOS>ATOM
      1 C           0.0509    0.0309    0.0002 C.ar    1  LIG1        0.1254
      2 C           1.4592    0.0309    0.0002 C.ar    1  LIG1        0.0397
      3 C          -0.6045    1.2792    0.0002 C.ar    1  LIG1       -0.0184
      4 C           2.1849    1.2200   -0.0004 C.ar    1  LIG1        0.0479
      5 H           1.9850   -0.9213    0.0004 H       1  LIG1        0.0194
      6 C           0.1195    2.4666   -0.0004 C.ar    1  LIG1       -0.0422
      7 C           1.5181    2.4458   -0.0008 C.ar    1  LIG1        0.0363
      8 H          -0.4090    3.4165   -0.0003 H       1  LIG1        0.0631
      9 H          -1.9035    1.3287    0.0016 H       1  LIG1        0.0655
     10 O          -0.5709   -1.1108    0.0005 O.3     1  LIG1       -0.5061
     11 H           0.0706   -1.8250    0.0006 H       1  LIG1        0.2922
     12 C           2.1896    3.5590   -0.0012 C.1     1  LIG1       -0.0689
     13 C           2.8100    4.5875   -0.0016 C.1     1  LIG1       -0.1139
     14 H           3.3627    5.5037   -0.0019 H       1  LIG1        0.1232
     15 C           3.4844    1.1831   -0.0005 C.ar    1  LIG1        0.1879
     16 C           4.4399    0.1881   -0.0006 C.ar    1  LIG1        0.2664
     17 C           5.7279    0.8499   -0.0007 C.ar    1  LIG1        0.2151
     18 C           5.4738    2.2061   -0.0008 C.ar    1  LIG1        0.1975
     19 O           4.0977    2.4367   -0.0007 O.2     1  LIG1       -0.4455
     20 O           4.2495   -1.0979   -0.0005 O.3     1  LIG1       -0.2799
     21 C           2.8461   -1.3726   -0.0005 C.3     2  LIG2       -0.0776
     22 H           2.6899   -2.4312   -0.0006 H       1  LIG1        0.0194
     23 H           2.3992   -0.9462    0.8732 H       1  LIG1        0.0194
     24 H           2.3992   -0.9461   -0.8741 H       1  LIG1        0.0194
     25 O           6.8846    0.2566   -0.0008 O.3     1  LIG1       -0.4882
     26 C           6.6940   -1.1607   -0.0009 C.3     1  LIG1        0.0791
     27 H           7.6463   -1.6487   -0.0011 H       1  LIG1        0.0660
     28 H           6.1467   -1.4471    0.8729 H       1  LIG1        0.0660
     29 H           6.1464   -1.4469   -0.8744 H       1  LIG1        0.0660
     30 C           6.1999    3.2844   -0.0008 C.ar    1  LIG1        0.0929
     31 C           7.5505    3.4383   -0.0012 C.ar    1  LIG1        0.0200
     32 C           7.8208    4.8446    0.0001 C.ar    1  LIG1        0.1456
     33 C           6.6234    5.4882   -0.0006 C.ar    1  LIG1        0.0907
     34 N           5.6283    4.5368   -0.0007 N.ar    1  LIG1       -0.3485
     35 H           4.6522    4.7244   -0.0012 H       1  LIG1        0.1661
     36 C           8.4317    2.4821   -0.0011 C.3     1  LIG1       -0.0341
     37 H           9.3158    2.8119    0.5033 H       1  LIG1        0.0279
     38 H           8.6735    2.2198   -1.0099 H       1  LIG1        0.0279
     39 H           8.0309    1.6278    0.5033 H       1  LIG1        0.0279
     40 O           8.9934    5.4060    0.0011 O.3     1  LIG1       -0.5044
     41 H           8.8916    6.3605    0.0014 H       1  LIG1        0.2922
     42 C           5.0119    7.1975    0.0004 C.ar    1  LIG1        0.0368
     43 C           6.3487    6.7589   -0.0001 C.ar    1  LIG1        0.0200
     44 C           7.3646    7.7165    0.0004 C.ar    1  LIG1       -0.0496
     45 C           7.0143    9.0677    0.0010 C.ar    1  LIG1       -0.0430
     46 C           5.6490    9.4075    0.0012 C.ar    1  LIG1        0.0276
     47 N           4.6560    8.4968    0.0010 N.ar    1  LIG1       -0.2626
     48 H           8.4207    7.4118   -0.0010 H       1  LIG1        0.0625
     49 H           5.2728   10.6519    0.0019 H       1  LIG1        0.0829
     50 H           4.0314    6.3439    0.0001 H       1  LIG1        0.0836
     51 H           7.9228    9.9976    0.0013 H       1  LIG1        0.0633
@<TRIPOS>BOND
     1    38    36    1
     2    29    26    1
     3    24    21    1
     4    14    13    1
     5    13    12    3
     6    31    36    1
     7    31    30   ar
     8    31    32   ar
     9    12     7    1
    10    35    34    1
    11    27    26    1
    12    36    39    1
    13    36    37    1
    14    48    44    1
    15    26    25    1
    16    26    28    1
    17    30    18    1
    18    30    34   ar
    19     7     6   ar
    20     7     4   ar
    21    25    17    1
    22    18    19   ar
    23    18    17   ar
    24    19    15   ar
    25    17    16   ar
    26    34    33   ar
    27    33    43    1
    28    33    32   ar
    29    16    15   ar
    30    16    20    1
    31    22    21    1
    32    15     4    1
    33    21     5    1
    34    21    23    1
    35     6     8    1
    36     6     3   ar
    37     4     2   ar
    38    43    42   ar
    39    43    44   ar
    40    32    40    1
    41    50    42    1
    42     1     2   ar
    43     1     3   ar
    44     1    10    1
    45     3     9    1
    46    42    47   ar
    47    44    45   ar
    48    10    11    1
    49    47    46   ar
    50    45    46   ar
    51    45    51    1
    52    40    41    1
    53    46    49    1
