@<TRIPOS>MOLECULE
mol_data/noopt/geoms/mol2/4fe12lh(250)13ah(260)6ea(190).out
 49 52 0 0 0
SMALL
GASTEIGER

@<TRIPOS>ATOM
      1 C           0.0509    0.0309    0.0002 C.ar    1  LIG1        0.1176
      2 C           1.4592    0.0309    0.0002 C.ar    1  LIG1       -0.0082
      3 C          -0.6045    1.2792    0.0002 C.ar    1  LIG1       -0.0190
      4 C           2.1849    1.2200   -0.0004 C.ar    1  LIG1        0.0398
      5 H           1.9850   -0.9213    0.0004 H       1  LIG1        0.0661
      6 C           0.1195    2.4666   -0.0004 C.ar    1  LIG1       -0.0422
      7 C           1.5181    2.4458   -0.0008 C.ar    1  LIG1        0.0357
      8 H          -0.4090    3.4165   -0.0003 H       1  LIG1        0.0631
      9 H          -1.9035    1.3287    0.0016 H       1  LIG1        0.0654
     10 O          -0.5709   -1.1108    0.0005 O.3     1  LIG1       -0.5067
     11 H           0.0706   -1.8250    0.0006 H       1  LIG1        0.2921
     12 C           2.1896    3.5590   -0.0012 C.1     1  LIG1       -0.0689
     13 C           2.8100    4.5875   -0.0016 C.1     1  LIG1       -0.1139
     14 H           3.3627    5.5037   -0.0019 H       1  LIG1        0.1232
     15 C           3.4844    1.1831   -0.0005 C.ar    1  LIG1        0.1803
     16 C           4.4778    1.5263   -0.8940 C.ar    1  LIG1        0.1871
     17 C           5.7384    1.2225   -0.2494 C.ar    1  LIG1        0.1154
     18 C           5.4315    0.7137    0.9958 C.ar    1  LIG1        0.1761
     19 O           4.0479    0.6796    1.1728 O.2     1  LIG1       -0.4476
     20 O           4.3380    2.0257   -2.0861 O.3     1  LIG1       -0.4896
     21 C           5.5849    2.5723   -2.5238 C.3     1  LIG1        0.0791
     22 H           5.4694    2.9830   -3.5051 H       1  LIG1        0.0660
     23 H           5.8931    3.3430   -1.8485 H       1  LIG1        0.0660
     24 H           6.3250    1.7999   -2.5453 H       1  LIG1        0.0660
     25 N           6.9171    1.4041   -0.7669 N.pl3   1  LIG1       -0.3521
     26 H           7.1582    0.6151   -1.3320 H       1  LIG1        0.1425
     27 H           6.9095    2.2290   -1.3321 H       1  LIG1        0.1425
     28 C           6.1145    0.2726    2.0102 C.ar    1  LIG1        0.0863
     29 C           7.3497   -0.2926    2.0631 C.ar    1  LIG1       -0.0120
     30 C           7.6226   -0.5963    3.4357 C.ar    1  LIG1        0.0510
     31 C           6.5430   -0.2017    4.1614 C.ar    1  LIG1        0.0706
     32 N           5.6171    0.3305    3.2926 N.ar    1  LIG1       -0.3502
     33 H           4.7305    0.6986    3.5503 H       1  LIG1        0.1661
     34 H           8.1349   -0.5162    1.0515 H       1  LIG1        0.0658
     35 N           8.7025   -1.1472    3.9051 N.pl3   1  LIG1       -0.3563
     36 H           8.7600   -2.0932    3.5858 H       1  LIG1        0.1424
     37 H           9.5021   -0.6386    3.5858 H       1  LIG1        0.1424
     38 C           6.0633    0.9047    6.1774 C.ar    1  LIG1        0.1222
     39 C           6.3166   -0.2663    5.4399 C.ar    1  LIG1        0.0339
     40 C           6.3180   -1.4901    6.1117 C.ar    1  LIG1       -0.0485
     41 C           6.0690   -1.5030    7.4852 C.ar    1  LIG1       -0.0429
     42 C           5.8265   -0.2789    8.1352 C.ar    1  LIG1        0.0290
     43 N           5.8211    0.9106    7.5026 N.ar    1  LIG1       -0.2460
     44 H           6.5129   -2.4260    5.5691 H       1  LIG1        0.0625
     45 H           5.5895   -0.2394    9.4127 H       1  LIG1        0.0830
     46 C           6.0513    2.0676    5.5964 C.1     1  LIG1       -0.0491
     47 C           6.0402    3.1421    5.0596 C.1     1  LIG1       -0.1124
     48 H           6.0303    4.0993    4.5815 H       1  LIG1        0.1232
     49 H           6.0596   -2.6164    8.1561 H       1  LIG1        0.0633
@<TRIPOS>BOND
     1    22    21    1
     2    24    21    1
     3    21    20    1
     4    21    23    1
     5    20    16    1
     6    27    25    1
     7    26    25    1
     8    16    17   ar
     9    16    15   ar
    10    25    17    1
    11    17    18   ar
    12    14    13    1
    13    13    12    3
    14    12     7    1
    15     7     6   ar
    16     7     4   ar
    17    15     4    1
    18    15    19   ar
    19     6     8    1
    20     6     3   ar
    21     4     2   ar
    22     1     3   ar
    23     1     2   ar
    24     1    10    1
    25     3     9    1
    26     2     5    1
    27    10    11    1
    28    18    19   ar
    29    18    28    1
    30    34    29    1
    31    28    29   ar
    32    28    32   ar
    33    29    30   ar
    34    32    33    1
    35    32    31   ar
    36    30    35    1
    37    30    31   ar
    38    37    35    1
    39    36    35    1
    40    31    39    1
    41    48    47    1
    42    47    46    3
    43    39    40   ar
    44    39    38   ar
    45    44    40    1
    46    46    38    1
    47    40    41   ar
    48    38    43   ar
    49    41    42   ar
    50    41    49    1
    51    43    42   ar
    52    42    45    1
