@<TRIPOS>MOLECULE
mol_data/noopt/geoms/mol2/4fe12hl(160)13hd(90)4ai(290).out
 52 55 0 0 0
SMALL
GASTEIGER

@<TRIPOS>ATOM
      1 C           0.0509    0.0309    0.0002 C.ar    1  LIG1        0.1176
      2 C           1.4592    0.0309    0.0002 C.ar    1  LIG1       -0.0083
      3 C          -0.6045    1.2792    0.0002 C.ar    1  LIG1       -0.0190
      4 C           2.1849    1.2200   -0.0004 C.ar    1  LIG1        0.0380
      5 H           1.9850   -0.9213    0.0004 H       1  LIG1        0.0661
      6 C           0.1195    2.4666   -0.0004 C.ar    1  LIG1       -0.0422
      7 C           1.5181    2.4458   -0.0008 C.ar    1  LIG1        0.0356
      8 H          -0.4090    3.4165   -0.0003 H       1  LIG1        0.0631
      9 H          -1.9035    1.3287    0.0016 H       1  LIG1        0.0654
     10 O          -0.5709   -1.1108    0.0005 O.3     1  LIG1       -0.5067
     11 H           0.0706   -1.8250    0.0006 H       1  LIG1        0.2921
     12 C           2.1896    3.5590   -0.0012 C.1     1  LIG1       -0.0689
     13 C           2.8100    4.5875   -0.0016 C.1     1  LIG1       -0.1139
     14 H           3.3627    5.5037   -0.0019 H       1  LIG1        0.1232
     15 C           3.4844    1.1831   -0.0005 C.ar    1  LIG1        0.1613
     16 C           4.4935    2.0766    0.2933 C.ar    1  LIG1        0.1140
     17 C           5.7428    1.3757    0.0812 C.ar    1  LIG1        0.1885
     18 C           5.4140    0.0998   -0.3283 C.ar    1  LIG1        0.1969
     19 O           4.0273   -0.0433   -0.3863 O.2     1  LIG1       -0.4475
     20 N           4.3747    3.3103    0.6854 N.pl3   1  LIG1       -0.3522
     21 H           5.1434    3.8464    0.3365 H       1  LIG1        0.1425
     22 H           3.5180    3.6900    0.3364 H       1  LIG1        0.1425
     23 O           6.9306    1.8760    0.2513 O.3     1  LIG1       -0.4896
     24 C           7.8900    0.8174    0.3137 C.3     1  LIG1        0.0791
     25 H           8.8674    1.2296    0.4535 H       1  LIG1        0.0660
     26 H           7.6549    0.1709    1.1333 H       1  LIG1        0.0660
     27 H           7.8654    0.2595   -0.5990 H       1  LIG1        0.0660
     28 C           6.0791   -0.9661   -0.6621 C.ar    1  LIG1        0.1085
     29 C           6.6705   -1.9149    0.1112 C.ar    1  LIG1        0.0716
     30 C           7.2695   -2.8721   -0.7694 C.ar    1  LIG1        0.0983
     31 C           7.0163   -2.4672   -2.0422 C.ar    1  LIG1        0.0664
     32 N           6.2881   -1.3004   -1.9811 N.ar    1  LIG1       -0.3491
     33 H           5.9642   -0.7820   -2.7649 H       1  LIG1        0.1661
     34 N           6.6883   -1.9436    1.4108 N.pl3   1  LIG1       -0.3552
     35 H           6.2466   -2.7814    1.7317 H       1  LIG1        0.1424
     36 H           7.6351   -1.9220    1.7317 H       1  LIG1        0.1424
     37 N           8.5186   -4.8704   -0.1120 N.1     1  LIG1       -0.1907
     38 C           7.9332   -3.9339   -0.4201 C.1     1  LIG1        0.1032
     39 C           6.6428   -2.6598   -4.3503 C.ar    1  LIG1       -0.0526
     40 C           7.0423   -3.2666   -5.5568 C.ar    1  LIG1       -0.0609
     41 C           7.3502   -3.0010   -3.1794 C.ar    1  LIG1       -0.0001
     42 C           8.0995   -4.1728   -5.5981 C.ar    1  LIG1       -0.0588
     43 H           6.5098   -3.0176   -6.4720 H       1  LIG1        0.0618
     44 C           8.4057   -3.9056   -3.2201 C.ar    1  LIG1       -0.0497
     45 C           8.7878   -4.4975   -4.4285 C.ar    1  LIG1       -0.0498
     46 H           8.9355   -4.1525   -2.3036 H       1  LIG1        0.0627
     47 H           8.4418   -4.7141   -6.7294 H       1  LIG1        0.0620
     48 H           5.6492   -1.8219   -4.3750 H       1  LIG1        0.0624
     49 C           9.7754   -5.3428   -4.4604 C.3     1  LIG1       -0.0397
     50 H          10.6238   -4.9189   -3.9649 H       1  LIG1        0.0278
     51 H          10.0276   -5.5585   -5.4777 H       1  LIG1        0.0278
     52 H           9.4876   -6.2464   -3.9650 H       1  LIG1        0.0278
@<TRIPOS>BOND
     1    47    42    1
     2    43    40    1
     3    42    40   ar
     4    42    45   ar
     5    40    39   ar
     6    51    49    1
     7    49    45    1
     8    49    52    1
     9    49    50    1
    10    45    44   ar
    11    48    39    1
    12    39    41   ar
    13    44    41   ar
    14    44    46    1
    15    41    31    1
    16    33    32    1
    17    31    32   ar
    18    31    30   ar
    19    32    28   ar
    20    30    38    1
    21    30    29   ar
    22    28    18    1
    23    28    29   ar
    24    27    24    1
    25    38    37    3
    26    19    18   ar
    27    19    15   ar
    28    18    17   ar
    29    14    13    1
    30    13    12    3
    31    12     7    1
    32     7     4   ar
    33     7     6   ar
    34    15     4    1
    35    15    16   ar
    36     4     2   ar
    37     6     8    1
    38     6     3   ar
    39     2     1   ar
    40     2     5    1
    41     3     1   ar
    42     3     9    1
    43     1    10    1
    44    10    11    1
    45    17    23    1
    46    17    16   ar
    47    29    34    1
    48    23    24    1
    49    16    20    1
    50    24    25    1
    51    24    26    1
    52    22    20    1
    53    21    20    1
    54    34    35    1
    55    34    36    1
