@<TRIPOS>MOLECULE
mol_data/noopt/geoms/mol2/4fe4ia13ef-4hd-.out
 52 54 0 0 0
SMALL
GASTEIGER

@<TRIPOS>ATOM
      1 C           0.0509    0.0309    0.0002 C.ar    1  LIG1        0.1175
      2 C           1.4592    0.0309    0.0002 C.ar    1  LIG1       -0.0113
      3 C          -0.6045    1.2792    0.0002 C.ar    1  LIG1       -0.0190
      4 C           2.1849    1.2200   -0.0004 C.ar    1  LIG1        0.0012
      5 H           1.9850   -0.9213    0.0004 H       1  LIG1        0.0660
      6 C           0.1195    2.4666   -0.0004 C.ar    1  LIG1       -0.0423
      7 C           1.5181    2.4458   -0.0008 C.ar    1  LIG1        0.0326
      8 H          -0.4090    3.4165   -0.0003 H       1  LIG1        0.0631
      9 H          -1.9035    1.3287    0.0016 H       1  LIG1        0.0654
     10 O          -0.5709   -1.1108    0.0005 O.3     1  LIG1       -0.5067
     11 H           0.0706   -1.8250    0.0006 H       1  LIG1        0.2921
     12 C           2.1896    3.5590   -0.0012 C.1     1  LIG1       -0.0690
     13 C           2.8100    4.5875   -0.0016 C.1     1  LIG1       -0.1139
     14 H           3.3627    5.5037   -0.0019 H       1  LIG1        0.1232
     15 C           4.1518   -0.0588    0.0002 C.ar    1  LIG1       -0.0421
     16 C           5.5600   -0.0451    0.0016 C.ar    1  LIG1       -0.0491
     17 C           3.4843    1.1831   -0.0005 C.ar    1  LIG1       -0.0137
     18 C           6.2742    1.1510    0.0017 C.ar    1  LIG1       -0.0002
     19 H           6.0950   -0.9922    0.0024 H       1  LIG1        0.0627
     20 C           4.1968    2.3775   -0.0004 C.ar    1  LIG1       -0.0531
     21 C           5.5955    2.3702    0.0006 C.ar    1  LIG1       -0.0520
     22 H           3.6591    3.3222   -0.0009 H       1  LIG1        0.0624
     23 C           3.5410   -1.2067   -0.0001 C.3     1  LIG1       -0.0391
     24 H           4.1447   -1.9321    0.5043 H       1  LIG1        0.0278
     25 H           3.3736   -1.5215   -1.0090 H       1  LIG1        0.0278
     26 H           2.6021   -1.1113    0.5042 H       1  LIG1        0.0278
     27 H           6.2561    3.4899    0.0008 H       1  LIG1        0.0624
     28 C           7.5739    1.1267    0.0029 C.ar    1  LIG1        0.0631
     29 C           8.4364    0.0760    0.0200 C.ar    1  LIG1        0.0583
     30 C           9.7641    0.6125    0.0135 C.ar    1  LIG1        0.0267
     31 C           9.6546    1.9673   -0.0090 C.ar    1  LIG1        0.0578
     32 N           8.3154    2.2864   -0.0151 N.ar    1  LIG1       -0.3526
     33 H           7.9431    3.2079   -0.0307 H       1  LIG1        0.1660
     34 C           8.1118   -1.1826    0.0401 C.1     1  LIG1       -0.0669
     35 C           7.8119   -2.3456    0.0587 C.1     1  LIG1       -0.1138
     36 H           7.5448   -3.3816    0.0752 H       1  LIG1        0.1232
     37 O          10.8721   -0.0674    0.0262 O.3     2  HOH2       -0.2528
     38 H          11.6185    0.5364    0.0294 H       0  HOH0        0.2528
     39 C          11.9342    2.5220   -0.0080 C.ar    1  LIG1        0.0339
     40 C          12.8899    3.5562   -0.0222 C.ar    1  LIG1       -0.0392
     41 C          10.5726    2.8876   -0.0227 C.ar    1  LIG1        0.0208
     42 C          12.5092    4.8959   -0.0505 C.ar    1  LIG1       -0.0426
     43 H          13.9461    3.2963   -0.0111 H       1  LIG1        0.0636
     44 C          10.1919    4.2249   -0.0509 C.ar    1  LIG1       -0.0335
     45 C          11.1564    5.2379   -0.0651 C.ar    1  LIG1        0.0525
     46 H           9.1356    4.4813   -0.0617 H       1  LIG1        0.0637
     47 H          13.4182    5.8252   -0.0631 H       1  LIG1        0.0631
     48 N          12.3507    1.2908    0.0181 N.pl3   1  LIG1       -0.3575
     49 H          11.6870    0.7045   -0.4466 H       1  LIG1        0.1423
     50 H          13.2339    1.2278   -0.4466 H       1  LIG1        0.1423
     51 N          10.4755    7.5873   -0.1144 N.1     1  LIG1       -0.1909
     52 C          10.7946    6.4863   -0.0913 C.1     1  LIG1        0.0992
@<TRIPOS>BOND
     1    25    23    1
     2    50    48    1
     3    49    48    1
     4    51    52    3
     5    52    45    1
     6    45    44   ar
     7    45    42   ar
     8    47    42    1
     9    46    44    1
    10    44    41   ar
    11    42    40   ar
    12    33    32    1
    13    41    31    1
    14    41    39   ar
    15    40    43    1
    16    40    39   ar
    17    32    31   ar
    18    32    28   ar
    19    31    30   ar
    20    39    48    1
    21    14    13    1
    22    13    12    3
    23    12     7    1
    24    22    20    1
    25     7     6   ar
    26     7     4   ar
    27    17    20   ar
    28    17     4    1
    29    17    15   ar
    30    20    21   ar
    31     6     8    1
    32     6     3   ar
    33     4     2   ar
    34    23    15    1
    35    23    26    1
    36    23    24    1
    37     1     2   ar
    38     1     3   ar
    39     1    10    1
    40     2     5    1
    41     3     9    1
    42    15    16   ar
    43    10    11    1
    44    21    27    1
    45    21    18   ar
    46    16    18   ar
    47    16    19    1
    48    18    28    1
    49    28    29   ar
    50    30    29   ar
    51    29    34    1
    52    37    38    1
    53    34    35    3
    54    35    36    1
