@<TRIPOS>MOLECULE
mol_data/noopt/geoms/mol2/4fe4fe-.out
 28 28 0 0 0
SMALL
GASTEIGER

@<TRIPOS>ATOM
      1 C           0.0509    0.0309    0.0002 C.ar    1  LIG1        0.1175
      2 C           1.4592    0.0309    0.0002 C.ar    1  LIG1       -0.0121
      3 C          -0.6045    1.2792    0.0002 C.ar    1  LIG1       -0.0199
      4 C           2.1849    1.2200   -0.0004 C.ar    1  LIG1       -0.0071
      5 H           1.9850   -0.9213    0.0004 H       1  LIG1        0.0660
      6 C           0.1195    2.4666   -0.0004 C.ar    1  LIG1       -0.0539
      7 C           1.5181    2.4458   -0.0008 C.ar    1  LIG1       -0.0305
      8 H          -0.4090    3.4165   -0.0003 H       1  LIG1        0.0622
      9 H          -1.9035    1.3287    0.0016 H       1  LIG1        0.0654
     10 O          -0.5709   -1.1108    0.0005 O.3     1  LIG1       -0.5067
     11 H           0.0706   -1.8250    0.0006 H       1  LIG1        0.2921
     12 C           2.1896    3.5590   -0.0012 C.3     1  LIG1        0.0304
     13 C           2.8100    4.5875   -0.0016 C.3     2  LIG2       -0.0309
     14 H           3.3627    5.5037   -0.0019 H       1  LIG1        0.0309
     15 C           4.2212    2.3851    0.0002 C.ar    1  LIG1        0.1246
     16 C           5.6264    2.2916    0.0016 C.ar    1  LIG1       -0.0184
     17 C           3.4843    1.1831   -0.0005 C.ar    1  LIG1        0.0251
     18 C           6.2715    1.0569    0.0017 C.ar    1  LIG1       -0.0429
     19 H           6.2143    3.2067    0.0024 H       1  LIG1        0.0654
     20 C           4.1278   -0.0498   -0.0004 C.ar    1  LIG1       -0.0351
     21 C           5.5247   -0.1219    0.0006 C.ar    1  LIG1        0.0255
     22 H           3.5374   -0.9625   -0.0009 H       1  LIG1        0.0637
     23 H           7.5706    1.0074    0.0029 H       1  LIG1        0.0631
     24 O           3.6766    3.5656   -0.0001 O.3     1  LIG1       -0.5062
     25 H           2.7207    3.4775   -0.0002 H       1  LIG1        0.2922
     26 C           6.1208   -1.2772    0.0008 C.1     1  LIG1       -0.0696
     27 C           6.6715   -2.3447    0.0010 C.1     1  LIG1       -0.1139
     28 H           7.1621   -3.2956    0.0012 H       1  LIG1        0.1232
@<TRIPOS>BOND
     1    14    13    1
     2    12     7    1
     3    22    20    1
     4     7     4   ar
     5     7     6   ar
     6    17    20   ar
     7    17     4    1
     8    17    15   ar
     9    20    21   ar
    10     4     2   ar
    11     6     8    1
    12     6     3   ar
    13    25    24    1
    14    24    15    1
    15    15    16   ar
    16     1     3   ar
    17     1     2   ar
    18     1    10    1
    19     3     9    1
    20     2     5    1
    21    10    11    1
    22    21    26    1
    23    21    18   ar
    24    26    27    3
    25    27    28    1
    26    16    18   ar
    27    16    19    1
    28    18    23    1
