@<TRIPOS>MOLECULE
mol_data/noopt/geoms/mol2/4fe4fe.out
 28 29 0 0 0
SMALL
GASTEIGER

@<TRIPOS>ATOM
      1 C           0.0509    0.0309    0.0002 C.ar    1  LIG1        0.1175
      2 C           1.4592    0.0309    0.0002 C.ar    1  LIG1       -0.0112
      3 C          -0.6045    1.2792    0.0002 C.ar    1  LIG1       -0.0190
      4 C           2.1849    1.2200   -0.0004 C.ar    1  LIG1        0.0045
      5 H           1.9850   -0.9213    0.0004 H       1  LIG1        0.0660
      6 C           0.1195    2.4666   -0.0004 C.ar    1  LIG1       -0.0423
      7 C           1.5181    2.4458   -0.0008 C.ar    1  LIG1        0.0327
      8 H          -0.4090    3.4165   -0.0003 H       1  LIG1        0.0631
      9 H          -1.9035    1.3287    0.0016 H       1  LIG1        0.0654
     10 O          -0.5709   -1.1108    0.0005 O.3     1  LIG1       -0.5067
     11 H           0.0706   -1.8250    0.0006 H       1  LIG1        0.2921
     12 C           2.1896    3.5590   -0.0012 C.1     1  LIG1       -0.0690
     13 C           2.8100    4.5875   -0.0016 C.1     1  LIG1       -0.1139
     14 H           3.3627    5.5037   -0.0019 H       1  LIG1        0.1232
     15 C           4.1518   -0.0588    0.0002 C.ar    1  LIG1        0.1246
     16 C           5.5600   -0.0451    0.0016 C.ar    1  LIG1       -0.0184
     17 C           3.4843    1.1831   -0.0005 C.ar    1  LIG1        0.0260
     18 C           6.2742    1.1510    0.0017 C.ar    1  LIG1       -0.0429
     19 H           6.0950   -0.9922    0.0024 H       1  LIG1        0.0654
     20 C           4.1968    2.3775   -0.0004 C.ar    1  LIG1       -0.0351
     21 C           5.5955    2.3702    0.0006 C.ar    1  LIG1        0.0255
     22 H           3.6591    3.3222   -0.0009 H       1  LIG1        0.0637
     23 H           7.5740    1.1267    0.0029 H       1  LIG1        0.0631
     24 O           3.5411   -1.2065   -0.0001 O.3     1  LIG1       -0.5062
     25 H           4.1895   -1.9144   -0.0001 H       1  LIG1        0.2922
     26 C           6.2561    3.4899    0.0008 C.1     1  LIG1       -0.0696
     27 C           6.8666    4.5244    0.0010 C.1     1  LIG1       -0.1139
     28 H           7.4103    5.4459    0.0012 H       1  LIG1        0.1232
@<TRIPOS>BOND
     1    14    13    1
     2    13    12    3
     3    12     7    1
     4    22    20    1
     5     7     4   ar
     6     7     6   ar
     7    17    20   ar
     8    17     4    1
     9    17    15   ar
    10    20    21   ar
    11     4     2   ar
    12     6     8    1
    13     6     3   ar
    14    25    24    1
    15    24    15    1
    16     2     1   ar
    17     2     5    1
    18     3     1   ar
    19     3     9    1
    20     1    10    1
    21    15    16   ar
    22    10    11    1
    23    21    26    1
    24    21    18   ar
    25    26    27    3
    26    27    28    1
    27    16    18   ar
    28    16    19    1
    29    18    23    1
