@<TRIPOS>MOLECULE
mol_data/noopt/geoms/mol2/4fe4fe4fe-4fe.out
 54 56 0 0 0
SMALL
GASTEIGER

@<TRIPOS>ATOM
      1 C           0.0509    0.0309    0.0002 C.ar    1  LIG1        0.1175
      2 C           1.4592    0.0309    0.0002 C.ar    1  LIG1       -0.0112
      3 C          -0.6045    1.2792    0.0002 C.ar    1  LIG1       -0.0190
      4 C           2.1849    1.2200   -0.0004 C.ar    1  LIG1        0.0044
      5 H           1.9850   -0.9213    0.0004 H       1  LIG1        0.0660
      6 C           0.1195    2.4666   -0.0004 C.ar    1  LIG1       -0.0423
      7 C           1.5181    2.4458   -0.0008 C.ar    1  LIG1        0.0327
      8 H          -0.4090    3.4165   -0.0003 H       1  LIG1        0.0631
      9 H          -1.9035    1.3287    0.0016 H       1  LIG1        0.0654
     10 O          -0.5709   -1.1108    0.0005 O.3     1  LIG1       -0.5067
     11 H           0.0706   -1.8250    0.0006 H       1  LIG1        0.2921
     12 C           2.1896    3.5590   -0.0012 C.1     1  LIG1       -0.0690
     13 C           2.8100    4.5875   -0.0016 C.1     1  LIG1       -0.1139
     14 H           3.3627    5.5037   -0.0019 H       1  LIG1        0.1232
     15 C           4.1518   -0.0588    0.0002 C.ar    1  LIG1        0.1252
     16 C           5.5600   -0.0451    0.0016 C.ar    1  LIG1       -0.0115
     17 C           3.4843    1.1831   -0.0005 C.ar    1  LIG1        0.0251
     18 C           6.2742    1.1510    0.0017 C.ar    1  LIG1       -0.0071
     19 H           6.0950   -0.9922    0.0024 H       1  LIG1        0.0660
     20 C           4.1968    2.3775   -0.0004 C.ar    1  LIG1       -0.0461
     21 C           5.5955    2.3702    0.0006 C.ar    1  LIG1       -0.0299
     22 H           3.6591    3.3222   -0.0009 H       1  LIG1        0.0628
     23 O           3.5411   -1.2065   -0.0001 O.3     1  LIG1       -0.5061
     24 H           4.1895   -1.9144   -0.0001 H       1  LIG1        0.2922
     25 C           6.2561    3.4899    0.0008 C.3     1  LIG1        0.0304
     26 C           6.8666    4.5244    0.0010 C.3     2  LIG2       -0.0309
     27 H           7.4103    5.4459    0.0012 H       1  LIG1        0.0309
     28 C           8.2991    2.3358    0.0043 C.ar    1  LIG1        0.1252
     29 C           9.7051    2.2559    0.0071 C.ar    1  LIG1       -0.0106
     30 C           7.5739    1.1267    0.0029 C.ar    1  LIG1        0.0251
     31 C          10.3621    1.0275    0.0079 C.ar    1  LIG1        0.0045
     32 H          10.2841    3.1767    0.0084 H       1  LIG1        0.0661
     33 C           8.2293   -0.0999    0.0037 C.ar    1  LIG1       -0.0345
     34 C           9.6269   -0.1585    0.0061 C.ar    1  LIG1        0.0333
     35 H           7.6478   -1.0183    0.0026 H       1  LIG1        0.0637
     36 O           7.7431    3.5109    0.0034 O.3     1  LIG1       -0.5061
     37 H           6.7880    3.4135    0.0032 H       1  LIG1        0.2922
     38 C          10.2341   -1.3080    0.0069 C.1     1  LIG1       -0.0690
     39 C          10.7952   -2.3701    0.0077 C.1     1  LIG1       -0.1139
     40 H          11.2950   -3.3162    0.0084 H       1  LIG1        0.1232
     41 C          12.3290   -0.2513    0.0125 C.ar    1  LIG1        0.1246
     42 C          13.7373   -0.2376    0.0167 C.ar    1  LIG1       -0.0184
     43 C          11.6616    0.9906    0.0104 C.ar    1  LIG1        0.0260
     44 C          14.4514    0.9585    0.0181 C.ar    1  LIG1       -0.0429
     45 H          14.2723   -1.1847    0.0186 H       1  LIG1        0.0654
     46 C          12.3740    2.1850    0.0118 C.ar    1  LIG1       -0.0351
     47 C          13.7727    2.1777    0.0156 C.ar    1  LIG1        0.0255
     48 H          11.8363    3.1297    0.0102 H       1  LIG1        0.0637
     49 H          15.7512    0.9342    0.0219 H       1  LIG1        0.0631
     50 O          11.7184   -1.3990    0.0110 O.3     1  LIG1       -0.5062
     51 H          12.3668   -2.1069    0.0107 H       1  LIG1        0.2922
     52 C          14.4334    3.2973    0.0171 C.1     1  LIG1       -0.0696
     53 C          15.0438    4.3319    0.0185 C.1     1  LIG1       -0.1139
     54 H          15.5876    5.2534    0.0197 H       1  LIG1        0.1232
@<TRIPOS>BOND
     1    14    13    1
     2    13    12    3
     3    12     7    1
     4    22    20    1
     5     7     4   ar
     6     7     6   ar
     7    17    20   ar
     8    17     4    1
     9    17    15   ar
    10    20    21   ar
    11     4     2   ar
    12     6     8    1
    13     6     3   ar
    14    24    23    1
    15    23    15    1
    16     2     1   ar
    17     2     5    1
    18     3     1   ar
    19     3     9    1
    20     1    10    1
    21    15    16   ar
    22    10    11    1
    23    21    25    1
    24    21    18   ar
    25    26    27    1
    26    16    18   ar
    27    16    19    1
    28    18    30    1
    29    35    33    1
    30    30    33   ar
    31    30    28   ar
    32    37    36    1
    33    36    28    1
    34    33    34   ar
    35    28    29   ar
    36    34    38    1
    37    34    31   ar
    38    38    39    3
    39    29    31   ar
    40    29    32    1
    41    39    40    1
    42    31    43    1
    43    48    46    1
    44    43    46   ar
    45    43    41   ar
    46    51    50    1
    47    50    41    1
    48    46    47   ar
    49    41    42   ar
    50    47    52    1
    51    47    44   ar
    52    42    44   ar
    53    42    45    1
    54    52    53    3
    55    44    49    1
    56    53    54    1
