@<TRIPOS>MOLECULE
mol_data/noopt/geoms/mol2/4fe4fe4fe4fe-.out
 54 56 0 0 0
SMALL
GASTEIGER

@<TRIPOS>ATOM
      1 C           0.0509    0.0309    0.0002 C.ar    1  LIG1        0.1175
      2 C           1.4592    0.0309    0.0002 C.ar    1  LIG1       -0.0112
      3 C          -0.6045    1.2792    0.0002 C.ar    1  LIG1       -0.0190
      4 C           2.1849    1.2200   -0.0004 C.ar    1  LIG1        0.0045
      5 H           1.9850   -0.9213    0.0004 H       1  LIG1        0.0660
      6 C           0.1195    2.4666   -0.0004 C.ar    1  LIG1       -0.0423
      7 C           1.5181    2.4458   -0.0008 C.ar    1  LIG1        0.0327
      8 H          -0.4090    3.4165   -0.0003 H       1  LIG1        0.0631
      9 H          -1.9035    1.3287    0.0016 H       1  LIG1        0.0654
     10 O          -0.5709   -1.1108    0.0005 O.3     1  LIG1       -0.5067
     11 H           0.0706   -1.8250    0.0006 H       1  LIG1        0.2921
     12 C           2.1896    3.5590   -0.0012 C.1     1  LIG1       -0.0690
     13 C           2.8100    4.5875   -0.0016 C.1     1  LIG1       -0.1139
     14 H           3.3627    5.5037   -0.0019 H       1  LIG1        0.1232
     15 C           4.1518   -0.0588    0.0002 C.ar    1  LIG1        0.1252
     16 C           5.5600   -0.0451    0.0016 C.ar    1  LIG1       -0.0106
     17 C           3.4843    1.1831   -0.0005 C.ar    1  LIG1        0.0260
     18 C           6.2742    1.1510    0.0017 C.ar    1  LIG1        0.0045
     19 H           6.0950   -0.9922    0.0024 H       1  LIG1        0.0661
     20 C           4.1968    2.3775   -0.0004 C.ar    1  LIG1       -0.0345
     21 C           5.5955    2.3702    0.0006 C.ar    1  LIG1        0.0333
     22 H           3.6591    3.3222   -0.0009 H       1  LIG1        0.0637
     23 O           3.5411   -1.2065   -0.0001 O.3     1  LIG1       -0.5061
     24 H           4.1895   -1.9144   -0.0001 H       1  LIG1        0.2922
     25 C           6.2561    3.4899    0.0008 C.1     1  LIG1       -0.0690
     26 C           6.8666    4.5244    0.0010 C.1     1  LIG1       -0.1139
     27 H           7.4103    5.4459    0.0012 H       1  LIG1        0.1232
     28 C           8.2534   -0.1087    0.0043 C.ar    1  LIG1        0.1252
     29 C           9.6614   -0.0814    0.0071 C.ar    1  LIG1       -0.0115
     30 C           7.5739    1.1267    0.0029 C.ar    1  LIG1        0.0251
     31 C          10.3639    1.1216    0.0079 C.ar    1  LIG1       -0.0071
     32 H          10.2056   -1.0232    0.0084 H       1  LIG1        0.0660
     33 C           8.2747    2.3279    0.0036 C.ar    1  LIG1       -0.0461
     34 C           9.6734    2.3342    0.0060 C.ar    1  LIG1       -0.0299
     35 H           7.7279    3.2674    0.0026 H       1  LIG1        0.0628
     36 O           7.6539   -1.2622    0.0034 O.3     1  LIG1       -0.5061
     37 H           8.3091   -1.9639    0.0032 H       1  LIG1        0.2922
     38 C          10.3232    3.4602    0.0069 C.3     1  LIG1        0.0304
     39 C          10.9236    4.5006    0.0077 C.3     2  LIG2       -0.0309
     40 H          11.4584    5.4274    0.0084 H       1  LIG1        0.0309
     41 C          12.3772    2.3260    0.0125 C.ar    1  LIG1        0.1246
     42 C          13.7839    2.2597    0.0167 C.ar    1  LIG1       -0.0184
     43 C          11.6638    1.1099    0.0104 C.ar    1  LIG1        0.0251
     44 C          14.4529    1.0378    0.0181 C.ar    1  LIG1       -0.0429
     45 H          14.3540    3.1861    0.0186 H       1  LIG1        0.0654
     46 C          12.3311   -0.1102    0.0118 C.ar    1  LIG1       -0.0351
     47 C          13.7291   -0.1553    0.0156 C.ar    1  LIG1        0.0255
     48 H          11.7585   -1.0342    0.0102 H       1  LIG1        0.0637
     49 H          15.7527    1.0135    0.0219 H       1  LIG1        0.0631
     50 O          11.8099    3.4957    0.0110 O.3     1  LIG1       -0.5062
     51 H          10.8558    3.3891    0.0107 H       1  LIG1        0.2922
     52 C          14.3475   -1.2988    0.0171 C.1     1  LIG1       -0.0696
     53 C          14.9188   -2.3554    0.0185 C.1     1  LIG1       -0.1139
     54 H          15.4278   -3.2966    0.0197 H       1  LIG1        0.1232
@<TRIPOS>BOND
     1    14    13    1
     2    13    12    3
     3    12     7    1
     4    22    20    1
     5     7     4   ar
     6     7     6   ar
     7    17    20   ar
     8    17     4    1
     9    17    15   ar
    10    20    21   ar
    11     4     2   ar
    12     6     8    1
    13     6     3   ar
    14    24    23    1
    15    23    15    1
    16     2     1   ar
    17     2     5    1
    18     3     1   ar
    19     3     9    1
    20     1    10    1
    21    15    16   ar
    22    10    11    1
    23    21    25    1
    24    21    18   ar
    25    25    26    3
    26    26    27    1
    27    16    18   ar
    28    16    19    1
    29    18    30    1
    30    35    33    1
    31    30    33   ar
    32    30    28   ar
    33    37    36    1
    34    36    28    1
    35    33    34   ar
    36    28    29   ar
    37    34    38    1
    38    34    31   ar
    39    29    31   ar
    40    29    32    1
    41    39    40    1
    42    31    43    1
    43    48    46    1
    44    43    46   ar
    45    43    41   ar
    46    51    50    1
    47    50    41    1
    48    46    47   ar
    49    41    42   ar
    50    47    52    1
    51    47    44   ar
    52    42    44   ar
    53    42    45    1
    54    52    53    3
    55    44    49    1
    56    53    54    1
