@<TRIPOS>MOLECULE
mol_data/noopt/geoms/mol2/4fe4fe4fe.out
 41 43 0 0 0
SMALL
GASTEIGER

@<TRIPOS>ATOM
      1 C           0.0509    0.0309    0.0002 C.ar    1  LIG1        0.1175
      2 C           1.4592    0.0309    0.0002 C.ar    1  LIG1       -0.0112
      3 C          -0.6045    1.2792    0.0002 C.ar    1  LIG1       -0.0190
      4 C           2.1849    1.2200   -0.0004 C.ar    1  LIG1        0.0045
      5 H           1.9850   -0.9213    0.0004 H       1  LIG1        0.0660
      6 C           0.1195    2.4666   -0.0004 C.ar    1  LIG1       -0.0423
      7 C           1.5181    2.4458   -0.0008 C.ar    1  LIG1        0.0327
      8 H          -0.4090    3.4165   -0.0003 H       1  LIG1        0.0631
      9 H          -1.9035    1.3287    0.0016 H       1  LIG1        0.0654
     10 O          -0.5709   -1.1108    0.0005 O.3     1  LIG1       -0.5067
     11 H           0.0706   -1.8250    0.0006 H       1  LIG1        0.2921
     12 C           2.1896    3.5590   -0.0012 C.1     1  LIG1       -0.0690
     13 C           2.8100    4.5875   -0.0016 C.1     1  LIG1       -0.1139
     14 H           3.3627    5.5037   -0.0019 H       1  LIG1        0.1232
     15 C           4.1518   -0.0588    0.0002 C.ar    1  LIG1        0.1252
     16 C           5.5600   -0.0451    0.0016 C.ar    1  LIG1       -0.0106
     17 C           3.4843    1.1831   -0.0005 C.ar    1  LIG1        0.0260
     18 C           6.2742    1.1510    0.0017 C.ar    1  LIG1        0.0045
     19 H           6.0950   -0.9922    0.0024 H       1  LIG1        0.0661
     20 C           4.1968    2.3775   -0.0004 C.ar    1  LIG1       -0.0345
     21 C           5.5955    2.3702    0.0006 C.ar    1  LIG1        0.0333
     22 H           3.6591    3.3222   -0.0009 H       1  LIG1        0.0637
     23 O           3.5411   -1.2065   -0.0001 O.3     1  LIG1       -0.5061
     24 H           4.1895   -1.9144   -0.0001 H       1  LIG1        0.2922
     25 C           6.2561    3.4899    0.0008 C.1     1  LIG1       -0.0690
     26 C           6.8666    4.5244    0.0010 C.1     1  LIG1       -0.1139
     27 H           7.4103    5.4459    0.0012 H       1  LIG1        0.1232
     28 C           8.2534   -0.1087    0.0043 C.ar    1  LIG1        0.1246
     29 C           9.6614   -0.0814    0.0071 C.ar    1  LIG1       -0.0184
     30 C           7.5739    1.1267    0.0029 C.ar    1  LIG1        0.0260
     31 C          10.3639    1.1216    0.0079 C.ar    1  LIG1       -0.0429
     32 H          10.2056   -1.0232    0.0084 H       1  LIG1        0.0654
     33 C           8.2747    2.3279    0.0036 C.ar    1  LIG1       -0.0351
     34 C           9.6734    2.3342    0.0060 C.ar    1  LIG1        0.0255
     35 H           7.7279    3.2674    0.0026 H       1  LIG1        0.0637
     36 H          11.6639    1.1099    0.0104 H       1  LIG1        0.0631
     37 O           7.6539   -1.2622    0.0034 O.3     1  LIG1       -0.5062
     38 H           8.3091   -1.9639    0.0032 H       1  LIG1        0.2922
     39 C          10.3232    3.4602    0.0069 C.1     1  LIG1       -0.0696
     40 C          10.9236    4.5006    0.0077 C.1     1  LIG1       -0.1139
     41 H          11.4584    5.4274    0.0084 H       1  LIG1        0.1232
@<TRIPOS>BOND
     1    14    13    1
     2    13    12    3
     3    12     7    1
     4    22    20    1
     5     7     4   ar
     6     7     6   ar
     7    17    20   ar
     8    17     4    1
     9    17    15   ar
    10    20    21   ar
    11     4     2   ar
    12     6     8    1
    13     6     3   ar
    14    24    23    1
    15    23    15    1
    16     1     3   ar
    17     1     2   ar
    18     1    10    1
    19     3     9    1
    20     2     5    1
    21    15    16   ar
    22    10    11    1
    23    21    25    1
    24    21    18   ar
    25    25    26    3
    26    26    27    1
    27    16    18   ar
    28    16    19    1
    29    18    30    1
    30    35    33    1
    31    30    33   ar
    32    30    28   ar
    33    38    37    1
    34    37    28    1
    35    33    34   ar
    36    28    29   ar
    37    34    39    1
    38    34    31   ar
    39    39    40    3
    40    29    31   ar
    41    29    32    1
    42    40    41    1
    43    31    36    1
