@<TRIPOS>MOLECULE
mol_data/noopt/geoms/mol2/4fe4fe-4fe4fe-.out
 54 55 0 0 0
SMALL
GASTEIGER

@<TRIPOS>ATOM
      1 C           0.0509    0.0309    0.0002 C.ar    1  LIG1        0.1175
      2 C           1.4592    0.0309    0.0002 C.ar    1  LIG1       -0.0121
      3 C          -0.6045    1.2792    0.0002 C.ar    1  LIG1       -0.0199
      4 C           2.1849    1.2200   -0.0004 C.ar    1  LIG1       -0.0071
      5 H           1.9850   -0.9213    0.0004 H       1  LIG1        0.0660
      6 C           0.1195    2.4666   -0.0004 C.ar    1  LIG1       -0.0539
      7 C           1.5181    2.4458   -0.0008 C.ar    1  LIG1       -0.0305
      8 H          -0.4090    3.4165   -0.0003 H       1  LIG1        0.0622
      9 H          -1.9035    1.3287    0.0016 H       1  LIG1        0.0654
     10 O          -0.5709   -1.1108    0.0005 O.3     1  LIG1       -0.5067
     11 H           0.0706   -1.8250    0.0006 H       1  LIG1        0.2921
     12 C           2.1896    3.5590   -0.0012 C.3     1  LIG1        0.0304
     13 C           2.8100    4.5875   -0.0016 C.3     2  LIG2       -0.0309
     14 H           3.3627    5.5037   -0.0019 H       1  LIG1        0.0309
     15 C           4.2212    2.3851    0.0002 C.ar    1  LIG1        0.1252
     16 C           5.6264    2.2916    0.0016 C.ar    1  LIG1       -0.0106
     17 C           3.4843    1.1831   -0.0005 C.ar    1  LIG1        0.0251
     18 C           6.2715    1.0569    0.0017 C.ar    1  LIG1        0.0045
     19 H           6.2143    3.2067    0.0024 H       1  LIG1        0.0661
     20 C           4.1278   -0.0498   -0.0004 C.ar    1  LIG1       -0.0345
     21 C           5.5247   -0.1219    0.0006 C.ar    1  LIG1        0.0333
     22 H           3.5374   -0.9625   -0.0009 H       1  LIG1        0.0637
     23 O           3.6766    3.5656   -0.0001 O.3     1  LIG1       -0.5061
     24 H           2.7207    3.4775   -0.0002 H       1  LIG1        0.2922
     25 C           6.1208   -1.2772    0.0008 C.1     1  LIG1       -0.0690
     26 C           6.6715   -2.3447    0.0010 C.1     1  LIG1       -0.1139
     27 H           7.1621   -3.2956    0.0012 H       1  LIG1        0.1232
     28 C           8.2259   -0.2409    0.0043 C.ar    1  LIG1        0.1252
     29 C           9.6342   -0.2409    0.0071 C.ar    1  LIG1       -0.0115
     30 C           7.5705    1.0074    0.0029 C.ar    1  LIG1        0.0251
     31 C          10.3599    0.9482    0.0079 C.ar    1  LIG1       -0.0071
     32 H          10.1600   -1.1931    0.0084 H       1  LIG1        0.0660
     33 C           8.2945    2.1948    0.0036 C.ar    1  LIG1       -0.0461
     34 C           9.6931    2.1740    0.0060 C.ar    1  LIG1       -0.0299
     35 H           7.7660    3.1447    0.0026 H       1  LIG1        0.0628
     36 O           7.6041   -1.3826    0.0034 O.3     1  LIG1       -0.5061
     37 H           8.2456   -2.0968    0.0032 H       1  LIG1        0.2922
     38 C          10.3646    3.2871    0.0069 C.3     1  LIG1        0.0304
     39 C          10.9850    4.3157    0.0077 C.3     3  LIG3       -0.0309
     40 H          11.5377    5.2319    0.0084 H       2  LIG2        0.0309
     41 C          12.3962    2.1133    0.0125 C.ar    1  LIG1        0.1246
     42 C          13.8014    2.0197    0.0167 C.ar    1  LIG1       -0.0184
     43 C          11.6593    0.9113    0.0104 C.ar    1  LIG1        0.0251
     44 C          14.4465    0.7851    0.0181 C.ar    1  LIG1       -0.0429
     45 H          14.3892    2.9349    0.0186 H       1  LIG1        0.0654
     46 C          12.3028   -0.3216    0.0118 C.ar    1  LIG1       -0.0351
     47 C          13.6997   -0.3937    0.0156 C.ar    1  LIG1        0.0255
     48 H          11.7124   -1.2343    0.0102 H       1  LIG1        0.0637
     49 H          15.7455    0.7356    0.0219 H       1  LIG1        0.0631
     50 O          11.8516    3.2938    0.0110 O.3     1  LIG1       -0.5062
     51 H          10.8957    3.2057    0.0107 H       1  LIG1        0.2922
     52 C          14.2958   -1.5490    0.0171 C.1     1  LIG1       -0.0696
     53 C          14.8465   -2.6165    0.0185 C.1     1  LIG1       -0.1139
     54 H          15.3371   -3.5674    0.0197 H       1  LIG1        0.1232
@<TRIPOS>BOND
     1    14    13    1
     2    12     7    1
     3    22    20    1
     4     7     4   ar
     5     7     6   ar
     6    17    20   ar
     7    17     4    1
     8    17    15   ar
     9    20    21   ar
    10     4     2   ar
    11     6     8    1
    12     6     3   ar
    13    24    23    1
    14    23    15    1
    15    15    16   ar
    16     1     3   ar
    17     1     2   ar
    18     1    10    1
    19     3     9    1
    20     2     5    1
    21    10    11    1
    22    21    25    1
    23    21    18   ar
    24    25    26    3
    25    26    27    1
    26    16    18   ar
    27    16    19    1
    28    18    30    1
    29    35    33    1
    30    30    33   ar
    31    30    28   ar
    32    37    36    1
    33    36    28    1
    34    33    34   ar
    35    28    29   ar
    36    34    38    1
    37    34    31   ar
    38    29    31   ar
    39    29    32    1
    40    39    40    1
    41    31    43    1
    42    48    46    1
    43    43    46   ar
    44    43    41   ar
    45    51    50    1
    46    50    41    1
    47    46    47   ar
    48    41    42   ar
    49    47    52    1
    50    47    44   ar
    51    42    44   ar
    52    42    45    1
    53    52    53    3
    54    44    49    1
    55    53    54    1
