@<TRIPOS>MOLECULE
mol_data/noopt/geoms/mol2/4fe6le(30)6hd(280)6ea(110).out
 53 57 0 0 0
SMALL
GASTEIGER

@<TRIPOS>ATOM
      1 C           0.0509    0.0309    0.0002 C.ar    1  LIG1        0.1175
      2 C           1.4592    0.0309    0.0002 C.ar    1  LIG1       -0.0111
      3 C          -0.6045    1.2792    0.0002 C.ar    1  LIG1       -0.0190
      4 C           2.1849    1.2200   -0.0004 C.ar    1  LIG1        0.0061
      5 H           1.9850   -0.9213    0.0004 H       1  LIG1        0.0660
      6 C           0.1195    2.4666   -0.0004 C.ar    1  LIG1       -0.0423
      7 C           1.5181    2.4458   -0.0008 C.ar    1  LIG1        0.0328
      8 H          -0.4090    3.4165   -0.0003 H       1  LIG1        0.0631
      9 H          -1.9035    1.3287    0.0016 H       1  LIG1        0.0654
     10 O          -0.5709   -1.1108    0.0005 O.3     1  LIG1       -0.5067
     11 H           0.0706   -1.8250    0.0006 H       1  LIG1        0.2921
     12 C           2.1896    3.5590   -0.0012 C.1     1  LIG1       -0.0690
     13 C           2.8100    4.5875   -0.0016 C.1     1  LIG1       -0.1139
     14 H           3.3627    5.5037   -0.0019 H       1  LIG1        0.1232
     15 C           4.2250    2.2141   -0.6070 C.ar    1  LIG1        0.2230
     16 C           3.4844    1.1831   -0.0005 C.ar    1  LIG1        0.0461
     17 C           4.1761    0.1278    0.5968 C.ar    1  LIG1       -0.0314
     18 C           5.5717    0.1375    0.5684 C.ar    1  LIG1        0.0515
     19 C           6.2230    1.2132   -0.0626 C.ar    1  LIG1        0.0934
     20 N           5.5714    2.2395   -0.6436 N.ar    1  LIG1       -0.2110
     21 H           3.6316   -0.6961    1.0795 H       1  LIG1        0.0638
     22 O           3.6261    3.2180   -1.1760 O.3     1  LIG1       -0.4792
     23 C           4.5639    4.2771   -1.3849 C.3     1  LIG1        0.0804
     24 H           4.0706    5.1030   -1.8534 H       1  LIG1        0.0660
     25 H           4.9654    4.5890   -0.4433 H       1  LIG1        0.0660
     26 H           5.3574    3.9320   -2.0143 H       1  LIG1        0.0660
     27 C           6.2617   -0.8219    1.1102 C.1     1  LIG1       -0.0675
     28 C           6.8992   -1.7084    1.6108 C.1     1  LIG1       -0.1138
     29 H           7.4670   -2.4980    2.0567 H       1  LIG1        0.1232
     30 C           8.2700    1.5094    1.0511 C.ar    1  LIG1        0.1261
     31 C           7.5209    1.2672   -0.1149 C.ar    1  LIG1        0.0415
     32 C           8.2024    1.0875   -1.3200 C.ar    1  LIG1       -0.0417
     33 C           9.5967    1.1553   -1.3200 C.ar    1  LIG1        0.0095
     34 C          10.2570    1.4024   -0.1025 C.ar    1  LIG1        0.0809
     35 N           9.6153    1.5780    1.0692 N.ar    1  LIG1       -0.2313
     36 H           7.6509    0.8973   -2.2516 H       1  LIG1        0.0629
     37 N           7.6808    1.6830    2.1968 N.pl3   1  LIG1       -0.3426
     38 H           7.3619    2.6281    2.2678 H       1  LIG1        0.1437
     39 H           6.9004    1.0618    2.2678 H       1  LIG1        0.1437
     40 N          10.8776    0.8536   -3.3826 N.pl3   1  LIG1       -0.2335
     41 C          10.2773    0.9950   -2.4160 C.3     1  LIG1        0.1394
     42 C          12.3312    1.1015   -1.1634 C.2     1  LIG1        0.1156
     43 C          11.5540    1.4744   -0.0515 C.2     1  LIG1        0.0307
     44 C          12.2071    1.9206    1.0990 C.2     1  LIG1       -0.0630
     45 C          13.6018    1.9786    1.1002 C.3     1  LIG1        0.0246
     46 C          14.2913    1.5839   -0.0610 C.2     1  LIG1        0.0142
     47 N          13.6773    1.1512   -1.1795 N.2     1  LIG1       -0.2502
     48 H          11.6333    2.2195    1.9876 H       1  LIG1        0.0586
     49 H          15.5899    1.6203   -0.1085 H       1  LIG1        0.0789
     50 C          11.7690    0.6799   -2.2571 C.1     1  LIG1       -0.0752
     51 C          11.2496    0.2903   -3.2677 C.2     1  LIG1        0.0566
     52 H          10.7869   -0.0567   -4.1679 H       1  LIG1        0.0888
     53 H          14.2565    2.3866    2.1465 H       1  LIG1        0.0410
@<TRIPOS>BOND
     1    52    51    1
     2    40    51    1
     3    40    41    1
     4    51    50    2
     5    41    33    1
     6    50    42    2
     7    36    32    1
     8    26    23    1
     9    24    23    1
    10    23    22    1
    11    23    25    1
    12    33    32   ar
    13    33    34   ar
    14    32    31   ar
    15    47    42    1
    16    47    46    2
    17    22    15    1
    18    42    43    1
    19    20    15   ar
    20    20    19   ar
    21    15    16   ar
    22    31    19    1
    23    31    30   ar
    24    49    46    1
    25    34    43    1
    26    34    35   ar
    27    19    18   ar
    28    46    45    1
    29    43    44    2
    30    14    13    1
    31    13    12    3
    32    12     7    1
    33     7     4   ar
    34     7     6   ar
    35    16     4    1
    36    16    17   ar
    37     4     2   ar
    38     6     8    1
    39     6     3   ar
    40     2     1   ar
    41     2     5    1
    42     1     3   ar
    43     1    10    1
    44     3     9    1
    45    10    11    1
    46    18    17   ar
    47    18    27    1
    48    17    21    1
    49    30    35   ar
    50    30    37    1
    51    44    45    1
    52    44    48    1
    53    45    53    1
    54    27    28    3
    55    28    29    1
    56    37    38    1
    57    37    39    1
