@<TRIPOS>MOLECULE
mol_data/noopt/geoms/mol2/4ff13eh(270)13li(10)12dh(200).out
 51 54 0 0 0
SMALL
GASTEIGER

@<TRIPOS>ATOM
      1 C           0.0509    0.0309    0.0002 C.ar    1  LIG1        0.1177
      2 C           1.4592    0.0309    0.0002 C.ar    1  LIG1       -0.0075
      3 C          -0.6045    1.2792    0.0002 C.ar    1  LIG1       -0.0167
      4 C           2.1849    1.2200   -0.0004 C.ar    1  LIG1        0.0444
      5 H           1.9850   -0.9213    0.0004 H       1  LIG1        0.0662
      6 C           0.1195    2.4666   -0.0004 C.ar    1  LIG1       -0.0161
      7 C           1.5181    2.4458   -0.0008 C.ar    1  LIG1        0.1262
      8 H          -0.4090    3.4165   -0.0003 H       1  LIG1        0.0655
      9 H          -1.9035    1.3287    0.0016 H       1  LIG1        0.0655
     10 O          -0.5709   -1.1108    0.0005 O.3     1  LIG1       -0.5067
     11 H           0.0706   -1.8250    0.0006 H       1  LIG1        0.2921
     12 O           2.1896    3.5590   -0.0012 O.3     1  LIG1       -0.5061
     13 H           1.5802    4.3008   -0.0013 H       1  LIG1        0.2922
     14 C           3.4844    1.1831   -0.0005 C.ar    1  LIG1        0.0680
     15 C           4.3659    1.1586   -1.0350 C.ar    1  LIG1        0.0713
     16 C           5.6828    1.1198   -0.4739 C.ar    1  LIG1        0.0680
     17 C           5.5482    1.1241    0.8788 C.ar    1  LIG1        0.0891
     18 N           4.2039    1.1623    1.1730 N.ar    1  LIG1       -0.3504
     19 H           3.8146    1.1738    2.0875 H       1  LIG1        0.1660
     20 C           4.0650    1.1673   -2.2997 C.1     1  LIG1       -0.0657
     21 C           3.7869    1.1753   -3.4682 C.1     1  LIG1       -0.1138
     22 H           3.5392    1.1824   -4.5091 H       1  LIG1        0.1232
     23 N           6.8028    1.0870   -1.1332 N.pl3   1  LIG1       -0.3553
     24 H           6.8271    0.2694   -1.7085 H       1  LIG1        0.1424
     25 H           6.8750    1.9017   -1.7085 H       1  LIG1        0.1424
     26 C           6.4485    1.0978    1.8162 C.ar    1  LIG1        0.1077
     27 C           6.9104    0.0627    2.5667 C.ar    1  LIG1        0.1503
     28 C           7.9028    0.5882    3.4553 C.ar    1  LIG1        0.0202
     29 C           8.0050    1.9209    3.2076 C.ar    1  LIG1        0.0904
     30 N           7.1160    2.2372    2.2051 N.ar    1  LIG1       -0.3474
     31 H           6.9785    3.1442    1.8224 H       1  LIG1        0.1662
     32 O           6.5195   -1.1748    2.4900 O.3     1  LIG1       -0.4927
     33 C           5.0906   -1.2231    2.4618 C.3     1  LIG1        0.0789
     34 H           4.7693   -2.2418    2.3986 H       1  LIG1        0.0660
     35 H           4.7011   -0.7811    3.3551 H       1  LIG1        0.0660
     36 H           4.7322   -0.6826    1.6108 H       1  LIG1        0.0660
     37 C           8.5832   -0.0826    4.3374 C.3     1  LIG1       -0.0341
     38 H           9.1394    0.5958    4.9500 H       1  LIG1        0.0279
     39 H           9.2572   -0.7470    3.8382 H       1  LIG1        0.0279
     40 H           7.9127   -0.6485    4.9499 H       1  LIG1        0.0279
     41 C           8.7635    2.8247    3.7534 C.ar    1  LIG1        0.1704
     42 C           8.7106    4.1954    3.8995 C.ar    1  LIG1        0.1194
     43 C           9.9031    4.5815    4.6247 C.ar    1  LIG1        0.0811
     44 C          10.6058    3.4206    4.8737 C.ar    1  LIG1        0.1145
     45 O           9.9234    2.3238    4.3463 O.2     1  LIG1       -0.4582
     46 H          11.7231    3.1237    5.4684 H       1  LIG1        0.1049
     47 N           6.9681    5.7195    3.1081 N.1     1  LIG1       -0.1907
     48 C           7.7847    5.0052    3.4790 C.1     1  LIG1        0.1049
     49 N          10.2246    5.7950    4.9627 N.pl3   1  LIG1       -0.3545
     50 H          11.1277    6.0154    4.5942 H       1  LIG1        0.1424
     51 H           9.5492    6.4337    4.5942 H       1  LIG1        0.1424
@<TRIPOS>BOND
     1    22    21    1
     2    21    20    3
     3    20    15    1
     4    25    23    1
     5    24    23    1
     6    23    16    1
     7    15    16   ar
     8    15    14   ar
     9    16    17   ar
    10    13    12    1
    11    12     7    1
    12     7     4   ar
    13     7     6   ar
    14    14     4    1
    15    14    18   ar
    16     4     2   ar
    17     6     8    1
    18     6     3   ar
    19     1     3   ar
    20     1     2   ar
    21     1    10    1
    22     3     9    1
    23     2     5    1
    24    10    11    1
    25    17    18   ar
    26    17    26    1
    27    18    19    1
    28    36    33    1
    29    26    30   ar
    30    26    27   ar
    31    31    30    1
    32    30    29   ar
    33    34    33    1
    34    33    32    1
    35    33    35    1
    36    32    27    1
    37    27    28   ar
    38    47    48    3
    39    29    28   ar
    40    29    41    1
    41    28    37    1
    42    48    42    1
    43    41    42   ar
    44    41    45   ar
    45    39    37    1
    46    42    43   ar
    47    37    40    1
    48    37    38    1
    49    45    44   ar
    50    51    49    1
    51    50    49    1
    52    43    44   ar
    53    43    49    1
    54    44    46    1
