@<TRIPOS>MOLECULE
mol_data/noopt/geoms/mol2/4ff4he(180)6dh(350)4fi(300).out
 54 56 0 0 0
SMALL
GASTEIGER

@<TRIPOS>ATOM
      1 C           0.0509    0.0309    0.0002 C.ar    1  LIG1        0.1175
      2 C           1.4592    0.0309    0.0002 C.ar    1  LIG1       -0.0118
      3 C          -0.6045    1.2792    0.0002 C.ar    1  LIG1       -0.0196
      4 C           2.1849    1.2200   -0.0004 C.ar    1  LIG1       -0.0049
      5 H           1.9850   -0.9213    0.0004 H       1  LIG1        0.0660
      6 C           0.1195    2.4666   -0.0004 C.ar    1  LIG1       -0.0500
      7 C           1.5181    2.4458   -0.0008 C.ar    1  LIG1       -0.0093
      8 H          -0.4090    3.4165   -0.0003 H       1  LIG1        0.0625
      9 H          -1.9035    1.3287    0.0016 H       1  LIG1        0.0654
     10 O          -0.5709   -1.1108    0.0005 O.3     1  LIG1       -0.5067
     11 H           0.0706   -1.8250    0.0006 H       1  LIG1        0.2921
     12 O           2.1896    3.5590   -0.0012 O.3     2  HOH2       -0.4105
     13 H           1.5802    4.3008   -0.0013 H       0  HOH0        0.2052
     14 C           4.2212    2.3851   -0.0013 C.ar    1  LIG1        0.0527
     15 C           5.6264    2.2916   -0.0029 C.ar    1  LIG1       -0.0298
     16 C           3.4843    1.1831   -0.0005 C.ar    1  LIG1        0.0063
     17 C           6.2715    1.0569   -0.0031 C.ar    1  LIG1        0.0021
     18 H           6.2143    3.2067   -0.0038 H       1  LIG1        0.0643
     19 C           4.1278   -0.0498   -0.0007 C.ar    1  LIG1       -0.0362
     20 C           5.5247   -0.1219   -0.0019 C.ar    1  LIG1        0.0331
     21 H           3.5374   -0.9625   -0.0001 H       1  LIG1        0.0637
     22 N           3.6767    3.5656   -0.0009 N.pl3   1  LIG1       -0.2659
     23 H           4.2784    4.2104   -0.4722 H       1  LIG1        0.1699
     24 H           2.7956    3.5264   -0.4723 H       0  HOH0        0.2052
     25 C           6.1208   -1.2772   -0.0022 C.1     1  LIG1       -0.0690
     26 C           6.6715   -2.3447   -0.0026 C.1     1  LIG1       -0.1139
     27 H           7.1621   -3.2956   -0.0028 H       1  LIG1        0.1232
     28 C           8.3269    2.1749    0.2055 C.ar    1  LIG1        0.1485
     29 C           7.5705    1.0074   -0.0045 C.ar    1  LIG1        0.0210
     30 C           8.2463   -0.1964   -0.2125 C.ar    1  LIG1       -0.0285
     31 C           9.6422   -0.1935   -0.2040 C.ar    1  LIG1        0.0517
     32 C          10.3099    1.0255    0.0143 C.ar    1  LIG1        0.0965
     33 N           9.6739    2.1959    0.2169 N.ar    1  LIG1       -0.2338
     34 H           7.6893   -1.1289   -0.3810 H       1  LIG1        0.0643
     35 N           7.2283    4.3290    0.5785 N.1     1  LIG1       -0.1893
     36 C           7.7432    3.3195    0.4037 C.1     1  LIG1        0.1197
     37 N          10.3177   -1.2881   -0.3930 N.pl3   1  LIG1       -0.3563
     38 H           9.7601   -1.9392   -0.9078 H       1  LIG1        0.1424
     39 H          11.1497   -1.0816   -0.9079 H       1  LIG1        0.1424
     40 C          12.3495    0.4974   -1.0177 C.ar    1  LIG1        0.1261
     41 C          13.7538    0.5809   -0.9521 C.ar    1  LIG1       -0.0193
     42 C          11.6087    1.0792    0.0313 C.ar    1  LIG1        0.0438
     43 C          14.3942    1.2158    0.1097 C.ar    1  LIG1       -0.0554
     44 H          14.3447    0.1385   -1.7510 H       1  LIG1        0.0654
     45 C          12.2475    1.7131    1.0916 C.ar    1  LIG1       -0.0461
     46 C          13.6436    1.7861    1.1385 C.ar    1  LIG1       -0.0496
     47 H          11.6541    2.1539    1.8885 H       1  LIG1        0.0628
     48 H          15.6926    1.2746    0.1382 H       1  LIG1        0.0621
     49 O          11.8094   -0.1075   -2.0339 O.3     1  LIG1       -0.5061
     50 H          12.3513   -0.8593   -2.2843 H       1  LIG1        0.2922
     51 C          14.2354    2.3799    2.1324 C.3     1  LIG1       -0.0397
     52 H          13.5067    2.8864    2.7303 H       1  LIG1        0.0278
     53 H          14.9421    3.0890    1.7547 H       1  LIG1        0.0278
     54 H          14.7444    1.6529    2.7302 H       1  LIG1        0.0278
@<TRIPOS>BOND
     1    50    49    1
     2    49    40    1
     3    44    41    1
     4    40    41   ar
     5    40    42   ar
     6    41    43   ar
     7    39    37    1
     8    38    37    1
     9    24    12    1
    10    23    22    1
    11    37    31    1
    12    34    30    1
    13    30    31   ar
    14    30    29   ar
    15    31    32   ar
    16    29    17    1
    17    29    28   ar
    18    18    15    1
    19    17    15   ar
    20    17    20   ar
    21    15    14   ar
    22    27    26    1
    23    26    25    3
    24    25    20    1
    25    20    19   ar
    26    14    22    1
    27    14    16   ar
    28    13    12    1
    29     7     6   ar
    30     7     4   ar
    31    19    16   ar
    32    19    21    1
    33    16     4    1
    34     6     8    1
    35     6     3   ar
    36     4     2   ar
    37     2     1   ar
    38     2     5    1
    39     3     1   ar
    40     3     9    1
    41     1    10    1
    42    10    11    1
    43    32    42    1
    44    32    33   ar
    45    42    45   ar
    46    43    48    1
    47    43    46   ar
    48    28    33   ar
    49    28    36    1
    50    36    35    3
    51    45    46   ar
    52    45    47    1
    53    46    51    1
    54    53    51    1
    55    51    54    1
    56    51    52    1
