@<TRIPOS>MOLECULE
mol_data/noopt/geoms/mol2/4ff4ff4ff-4ff.out
 50 53 0 0 0
SMALL
GASTEIGER

@<TRIPOS>ATOM
      1 C           0.0509    0.0309    0.0002 C.ar    1  LIG1        0.1177
      2 C           1.4592    0.0309    0.0002 C.ar    1  LIG1       -0.0089
      3 C          -0.6045    1.2792    0.0002 C.ar    1  LIG1       -0.0167
      4 C           2.1849    1.2200   -0.0004 C.ar    1  LIG1        0.0306
      5 H           1.9850   -0.9213    0.0004 H       1  LIG1        0.0661
      6 C           0.1195    2.4666   -0.0004 C.ar    1  LIG1       -0.0161
      7 C           1.5181    2.4458   -0.0008 C.ar    1  LIG1        0.1249
      8 H          -0.4090    3.4165   -0.0003 H       1  LIG1        0.0655
      9 H          -1.9035    1.3287    0.0016 H       1  LIG1        0.0655
     10 O          -0.5709   -1.1108    0.0005 O.3     1  LIG1       -0.5067
     11 H           0.0706   -1.8250    0.0006 H       1  LIG1        0.2921
     12 O           2.1896    3.5590   -0.0012 O.3     1  LIG1       -0.5062
     13 H           1.5802    4.3008   -0.0013 H       1  LIG1        0.2922
     14 C           4.1518   -0.0588    0.0002 C.ar    1  LIG1        0.1255
     15 C           5.5600   -0.0451    0.0016 C.ar    1  LIG1       -0.0083
     16 C           3.4843    1.1831   -0.0005 C.ar    1  LIG1        0.0306
     17 C           6.2742    1.1510    0.0017 C.ar    1  LIG1        0.0306
     18 H           6.0950   -0.9922    0.0024 H       1  LIG1        0.0661
     19 C           4.1968    2.3775   -0.0004 C.ar    1  LIG1       -0.0083
     20 C           5.5955    2.3702    0.0006 C.ar    1  LIG1        0.1255
     21 H           3.6591    3.3222   -0.0009 H       1  LIG1        0.0661
     22 O           3.5411   -1.2065   -0.0001 O.3     1  LIG1       -0.5061
     23 H           4.1895   -1.9144   -0.0001 H       1  LIG1        0.2922
     24 O           6.2562    3.4899    0.0008 O.3     1  LIG1       -0.5061
     25 H           5.6396    4.2257    0.0009 H       1  LIG1        0.2922
     26 C           8.2991    2.3358    0.0043 C.ar    1  LIG1        0.1255
     27 C           9.7051    2.2559    0.0071 C.ar    1  LIG1       -0.0083
     28 C           7.5739    1.1267    0.0029 C.ar    1  LIG1        0.0306
     29 C          10.3621    1.0275    0.0079 C.ar    1  LIG1        0.0306
     30 H          10.2841    3.1767    0.0084 H       1  LIG1        0.0661
     31 C           8.2293   -0.0999    0.0037 C.ar    1  LIG1       -0.0083
     32 C           9.6269   -0.1585    0.0061 C.ar    1  LIG1        0.1255
     33 H           7.6478   -1.0183    0.0026 H       1  LIG1        0.0661
     34 O           7.7431    3.5109    0.0034 O.3     1  LIG1       -0.5061
     35 H           6.7880    3.4135    0.0032 H       1  LIG1        0.2922
     36 O          10.2341   -1.3080    0.0069 O.3     1  LIG1       -0.5061
     37 H          11.1839   -1.1686    0.0071 H       1  LIG1        0.2922
     38 C          12.3290   -0.2513    0.0125 C.ar    1  LIG1        0.1249
     39 C          13.7373   -0.2376    0.0167 C.ar    1  LIG1       -0.0161
     40 C          11.6616    0.9906    0.0104 C.ar    1  LIG1        0.0306
     41 C          14.4514    0.9585    0.0181 C.ar    1  LIG1       -0.0167
     42 H          14.2723   -1.1847    0.0186 H       1  LIG1        0.0655
     43 C          12.3740    2.1850    0.0118 C.ar    1  LIG1       -0.0089
     44 C          13.7727    2.1777    0.0156 C.ar    1  LIG1        0.1177
     45 H          11.8363    3.1297    0.0102 H       1  LIG1        0.0661
     46 H          15.7512    0.9342    0.0219 H       1  LIG1        0.0655
     47 O          11.7184   -1.3990    0.0110 O.3     1  LIG1       -0.5062
     48 H          12.3668   -2.1069    0.0107 H       1  LIG1        0.2922
     49 O          14.4334    3.2974    0.0171 O.3     1  LIG1       -0.5067
     50 H          13.8168    4.0332    0.0175 H       1  LIG1        0.2921
@<TRIPOS>BOND
     1    13    12    1
     2    12     7    1
     3    21    19    1
     4     7     4   ar
     5     7     6   ar
     6    16    19   ar
     7    16     4    1
     8    16    14   ar
     9    19    20   ar
    10     4     2   ar
    11     6     8    1
    12     6     3   ar
    13    23    22    1
    14    22    14    1
    15     2     1   ar
    16     2     5    1
    17     3     1   ar
    18     3     9    1
    19     1    10    1
    20    14    15   ar
    21    10    11    1
    22    20    24    1
    23    20    17   ar
    24    24    25    1
    25    15    17   ar
    26    15    18    1
    27    17    28    1
    28    33    31    1
    29    28    31   ar
    30    28    26   ar
    31    35    34    1
    32    34    26    1
    33    31    32   ar
    34    26    27   ar
    35    32    36    1
    36    32    29   ar
    37    36    37    1
    38    27    29   ar
    39    27    30    1
    40    29    40    1
    41    45    43    1
    42    40    43   ar
    43    40    38   ar
    44    48    47    1
    45    47    38    1
    46    43    44   ar
    47    38    39   ar
    48    44    49    1
    49    44    41   ar
    50    39    41   ar
    51    39    42    1
    52    49    50    1
    53    41    46    1
