@<TRIPOS>MOLECULE
mol_data/noopt/geoms/mol2/4ff4ff4ff.out
 38 40 0 0 0
SMALL
GASTEIGER

@<TRIPOS>ATOM
      1 C           0.0509    0.0309    0.0002 C.ar    1  LIG1        0.1177
      2 C           1.4592    0.0309    0.0002 C.ar    1  LIG1       -0.0089
      3 C          -0.6045    1.2792    0.0002 C.ar    1  LIG1       -0.0167
      4 C           2.1849    1.2200   -0.0004 C.ar    1  LIG1        0.0306
      5 H           1.9850   -0.9213    0.0004 H       1  LIG1        0.0661
      6 C           0.1195    2.4666   -0.0004 C.ar    1  LIG1       -0.0161
      7 C           1.5181    2.4458   -0.0008 C.ar    1  LIG1        0.1249
      8 H          -0.4090    3.4165   -0.0003 H       1  LIG1        0.0655
      9 H          -1.9035    1.3287    0.0016 H       1  LIG1        0.0655
     10 O          -0.5709   -1.1108    0.0005 O.3     1  LIG1       -0.5067
     11 H           0.0706   -1.8250    0.0006 H       1  LIG1        0.2921
     12 O           2.1896    3.5590   -0.0012 O.3     1  LIG1       -0.5062
     13 H           1.5802    4.3008   -0.0013 H       1  LIG1        0.2922
     14 C           4.1518   -0.0588    0.0002 C.ar    1  LIG1        0.1255
     15 C           5.5600   -0.0451    0.0016 C.ar    1  LIG1       -0.0083
     16 C           3.4843    1.1831   -0.0005 C.ar    1  LIG1        0.0306
     17 C           6.2742    1.1510    0.0017 C.ar    1  LIG1        0.0306
     18 H           6.0950   -0.9922    0.0024 H       1  LIG1        0.0661
     19 C           4.1968    2.3775   -0.0004 C.ar    1  LIG1       -0.0083
     20 C           5.5955    2.3702    0.0006 C.ar    1  LIG1        0.1255
     21 H           3.6591    3.3222   -0.0009 H       1  LIG1        0.0661
     22 O           3.5411   -1.2065   -0.0001 O.3     1  LIG1       -0.5061
     23 H           4.1895   -1.9144   -0.0001 H       1  LIG1        0.2922
     24 O           6.2562    3.4899    0.0008 O.3     1  LIG1       -0.5061
     25 H           5.6396    4.2257    0.0009 H       1  LIG1        0.2922
     26 C           8.2534   -0.1087    0.0043 C.ar    1  LIG1        0.1249
     27 C           9.6614   -0.0814    0.0071 C.ar    1  LIG1       -0.0161
     28 C           7.5739    1.1267    0.0029 C.ar    1  LIG1        0.0306
     29 C          10.3639    1.1216    0.0079 C.ar    1  LIG1       -0.0167
     30 H          10.2056   -1.0232    0.0084 H       1  LIG1        0.0655
     31 C           8.2747    2.3279    0.0036 C.ar    1  LIG1       -0.0089
     32 C           9.6734    2.3342    0.0060 C.ar    1  LIG1        0.1177
     33 H           7.7279    3.2674    0.0026 H       1  LIG1        0.0661
     34 H          11.6639    1.1099    0.0104 H       1  LIG1        0.0655
     35 O           7.6539   -1.2622    0.0034 O.3     1  LIG1       -0.5062
     36 H           8.3091   -1.9639    0.0032 H       1  LIG1        0.2922
     37 O          10.3232    3.4602    0.0069 O.3     1  LIG1       -0.5067
     38 H           9.6996    4.1901    0.0071 H       1  LIG1        0.2921
@<TRIPOS>BOND
     1    13    12    1
     2    12     7    1
     3    21    19    1
     4     7     4   ar
     5     7     6   ar
     6    16    19   ar
     7    16     4    1
     8    16    14   ar
     9    19    20   ar
    10     4     2   ar
    11     6     8    1
    12     6     3   ar
    13    23    22    1
    14    22    14    1
    15     1     3   ar
    16     1     2   ar
    17     1    10    1
    18     3     9    1
    19     2     5    1
    20    14    15   ar
    21    10    11    1
    22    20    24    1
    23    20    17   ar
    24    24    25    1
    25    15    17   ar
    26    15    18    1
    27    17    28    1
    28    33    31    1
    29    28    31   ar
    30    28    26   ar
    31    36    35    1
    32    35    26    1
    33    31    32   ar
    34    26    27   ar
    35    32    37    1
    36    32    29   ar
    37    37    38    1
    38    27    29   ar
    39    27    30    1
    40    29    34    1
