@<TRIPOS>MOLECULE
mol_data/noopt/geoms/mol2/4ff6ae(100)4dd(40)6df(110).out
 48 51 0 0 0
SMALL
GASTEIGER

@<TRIPOS>ATOM
      1 C           0.0509    0.0309    0.0002 C.ar    1  LIG1        0.1177
      2 C           1.4592    0.0309    0.0002 C.ar    1  LIG1       -0.0089
      3 C          -0.6045    1.2792    0.0002 C.ar    1  LIG1       -0.0167
      4 C           2.1849    1.2200   -0.0004 C.ar    1  LIG1        0.0285
      5 H           1.9850   -0.9213    0.0004 H       1  LIG1        0.0661
      6 C           0.1195    2.4666   -0.0004 C.ar    1  LIG1       -0.0161
      7 C           1.5181    2.4458   -0.0008 C.ar    1  LIG1        0.1248
      8 H          -0.4090    3.4165   -0.0003 H       1  LIG1        0.0655
      9 H          -1.9035    1.3287    0.0016 H       1  LIG1        0.0655
     10 O          -0.5709   -1.1108    0.0005 O.3     1  LIG1       -0.5067
     11 H           0.0706   -1.8250    0.0006 H       1  LIG1        0.2921
     12 O           2.1896    3.5590   -0.0012 O.3     1  LIG1       -0.5062
     13 H           1.5802    4.3008   -0.0013 H       1  LIG1        0.2922
     14 C           4.1891    0.9522   -1.1961 C.ar    1  LIG1        0.0362
     15 C           3.4844    1.1831   -0.0005 C.ar    1  LIG1        0.0050
     16 C           4.2115    1.3704    1.1765 C.ar    1  LIG1       -0.0350
     17 C           5.6054    1.3211    1.1203 C.ar    1  LIG1        0.0512
     18 C           6.2194    1.0840   -0.1232 C.ar    1  LIG1        0.0876
     19 N           5.5334    0.9014   -1.2684 N.ar    1  LIG1       -0.2531
     20 H           3.6955    1.5523    2.1299 H       1  LIG1        0.0637
     21 H           3.5566    0.7721   -2.3174 H       1  LIG1        0.0836
     22 C           6.3274    1.4891    2.1883 C.1     1  LIG1       -0.0675
     23 C           6.9945    1.6443    3.1750 C.1     1  LIG1       -0.1138
     24 H           7.5888    1.7826    4.0540 H       1  LIG1        0.1232
     25 C           8.2365    0.0619    0.5016 C.ar    1  LIG1        0.0616
     26 C           9.6372    0.0447    0.3566 C.ar    1  LIG1       -0.0347
     27 C           7.5140    1.0293   -0.2265 C.ar    1  LIG1        0.0201
     28 C          10.2917    0.9494   -0.4764 C.ar    1  LIG1        0.0036
     29 H          10.2140   -0.6934    0.9094 H       1  LIG1        0.0637
     30 C           8.1669    1.9327   -1.0582 C.ar    1  LIG1       -0.0333
     31 C           9.5591    1.8994   -1.1892 C.ar    1  LIG1        0.0602
     32 H           7.5876    2.6692   -1.6090 H       1  LIG1        0.0637
     33 N           7.1942   -1.5748    1.9917 N.1     1  LIG1       -0.1908
     34 C           7.6827   -0.8078    1.2934 C.1     1  LIG1        0.0998
     35 N          10.6975    3.4936   -2.6549 N.1     1  LIG1       -0.1908
     36 C          10.1640    2.7465   -1.9680 C.1     1  LIG1        0.0998
     37 C          12.1835    0.4691   -1.7836 C.ar    1  LIG1        0.1480
     38 C          11.5862    0.9051   -0.5867 C.ar    1  LIG1        0.0227
     39 C          12.4138    1.2864    0.4710 C.ar    1  LIG1       -0.0082
     40 C          13.7976    1.2197    0.2993 C.ar    1  LIG1        0.1355
     41 C          14.3001    0.7700   -0.9355 C.ar    1  LIG1        0.0705
     42 N          13.5163    0.3985   -1.9665 N.ar    1  LIG1       -0.2404
     43 H          11.9835    1.6315    1.4218 H       1  LIG1        0.0661
     44 H          15.5809    0.6905   -1.1435 H       1  LIG1        0.0867
     45 N          10.8123   -0.2181   -3.6898 N.1     1  LIG1       -0.1893
     46 C          11.4549    0.1040   -2.7965 C.1     1  LIG1        0.1197
     47 O          14.6106    1.5633    1.2538 O.3     1  LIG1       -0.5052
     48 H          14.4586    2.4815    1.4891 H       1  LIG1        0.2922
@<TRIPOS>BOND
     1    45    46    3
     2    46    37    1
     3    35    36    3
     4    21    14    1
     5    36    31    1
     6    42    37   ar
     7    42    41   ar
     8    37    38   ar
     9    32    30    1
    10    19    14   ar
    11    19    18   ar
    12    14    15   ar
    13    31    30   ar
    14    31    28   ar
    15    44    41    1
    16    30    27   ar
    17    41    40   ar
    18    38    28    1
    19    38    39   ar
    20    28    26   ar
    21    27    18    1
    22    27    25   ar
    23    18    17   ar
    24    13    12    1
    25    12     7    1
    26     7     4   ar
    27     7     6   ar
    28    15     4    1
    29    15    16   ar
    30     4     2   ar
    31     6     8    1
    32     6     3   ar
    33     3     1   ar
    34     3     9    1
    35     2     1   ar
    36     2     5    1
    37     1    10    1
    38    10    11    1
    39    40    39   ar
    40    40    47    1
    41    26    25   ar
    42    26    29    1
    43    39    43    1
    44    25    34    1
    45    17    16   ar
    46    17    22    1
    47    16    20    1
    48    47    48    1
    49    34    33    3
    50    22    23    3
    51    23    24    1
