@<TRIPOS>MOLECULE
mol_data/noopt/geoms/mol2/4fg4fg4fg-.out
 38 40 0 0 0
SMALL
GASTEIGER

@<TRIPOS>ATOM
      1 C           0.0509    0.0309    0.0002 C.ar    1  LIG1        0.1175
      2 C           1.4592    0.0309    0.0002 C.ar    1  LIG1       -0.0113
      3 C          -0.6045    1.2792    0.0002 C.ar    1  LIG1       -0.0191
      4 C           2.1849    1.2200   -0.0004 C.ar    1  LIG1        0.0022
      5 H           1.9850   -0.9213    0.0004 H       1  LIG1        0.0660
      6 C           0.1195    2.4666   -0.0004 C.ar    1  LIG1       -0.0445
      7 C           1.5181    2.4458   -0.0008 C.ar    1  LIG1        0.0128
      8 H          -0.4090    3.4165   -0.0003 H       1  LIG1        0.0630
      9 H          -1.9035    1.3287    0.0016 H       1  LIG1        0.0654
     10 O          -0.5709   -1.1108    0.0005 O.3     1  LIG1       -0.5067
     11 H           0.0706   -1.8250    0.0006 H       1  LIG1        0.2921
     12 S           2.1896    3.5589   -0.0012 S.3     1  LIG1       -0.1420
     13 H           1.3580    4.5712   -0.0013 H       1  LIG1        0.1071
     14 C           4.1518   -0.0588    0.0002 C.ar    1  LIG1        0.1252
     15 C           5.5600   -0.0451    0.0016 C.ar    1  LIG1       -0.0107
     16 C           3.4843    1.1831   -0.0005 C.ar    1  LIG1        0.0258
     17 C           6.2742    1.1510    0.0017 C.ar    1  LIG1        0.0023
     18 H           6.0950   -0.9922    0.0024 H       1  LIG1        0.0661
     19 C           4.1968    2.3775   -0.0004 C.ar    1  LIG1       -0.0367
     20 C           5.5955    2.3702    0.0006 C.ar    1  LIG1        0.0134
     21 H           3.6591    3.3222   -0.0009 H       1  LIG1        0.0636
     22 O           3.5411   -1.2065   -0.0001 O.3     1  LIG1       -0.5061
     23 H           4.1895   -1.9144   -0.0001 H       1  LIG1        0.2922
     24 S           6.2561    3.4898    0.0008 S.3     1  LIG1       -0.1420
     25 H           5.4148    4.4939    0.0009 H       1  LIG1        0.1071
     26 C           8.2534   -0.1085    0.0256 C.ar    1  LIG1        0.1246
     27 C           9.6614   -0.0811    0.0275 C.ar    1  LIG1       -0.0185
     28 C           7.5739    1.1267    0.0029 C.ar    1  LIG1        0.0257
     29 C          10.3639    1.1216    0.0070 C.ar    1  LIG1       -0.0451
     30 H          10.2055   -1.0228    0.0451 H       1  LIG1        0.0654
     31 C           8.2747    2.3277   -0.0175 C.ar    1  LIG1       -0.0373
     32 C           9.6735    2.3341   -0.0157 C.ar    1  LIG1        0.0055
     33 H           7.7279    3.2670   -0.0348 H       1  LIG1        0.0636
     34 H          11.6639    1.1100    0.0093 H       1  LIG1        0.0630
     35 O           7.6538   -1.2619    0.0451 O.3     1  LIG1       -0.5062
     36 H           8.3090   -1.9635    0.0499 H       1  LIG1        0.2922
     37 S          10.3232    3.4598   -0.0347 S.3     1  LIG1       -0.1426
     38 H           9.4722    4.4558   -0.0411 H       1  LIG1        0.1071
@<TRIPOS>BOND
     1    38    37    1
     2    33    31    1
     3    37    32    1
     4    31    32   ar
     5    31    28   ar
     6    32    29   ar
     7    13    12    1
     8    12     7    1
     9    21    19    1
    10     7     6   ar
    11     7     4   ar
    12    16    19   ar
    13    16     4    1
    14    16    14   ar
    15    19    20   ar
    16     6     8    1
    17     6     3   ar
    18     4     2   ar
    19    23    22    1
    20    22    14    1
    21     1     2   ar
    22     1     3   ar
    23     1    10    1
    24     2     5    1
    25     3     9    1
    26    14    15   ar
    27    10    11    1
    28    20    24    1
    29    20    17   ar
    30    24    25    1
    31    15    17   ar
    32    15    18    1
    33    17    28    1
    34    28    26   ar
    35    29    34    1
    36    29    27   ar
    37    26    27   ar
    38    26    35    1
    39    27    30    1
    40    35    36    1
