@<TRIPOS>MOLECULE
mol_data/noopt/geoms/mol2/4fg4fg-4fg.out
 38 40 0 0 0
SMALL
GASTEIGER

@<TRIPOS>ATOM
      1 C           0.0509    0.0309    0.0002 C.ar    1  LIG1        0.1175
      2 C           1.4592    0.0309    0.0002 C.ar    1  LIG1       -0.0113
      3 C          -0.6045    1.2792    0.0002 C.ar    1  LIG1       -0.0191
      4 C           2.1849    1.2200   -0.0004 C.ar    1  LIG1        0.0022
      5 H           1.9850   -0.9213    0.0004 H       1  LIG1        0.0660
      6 C           0.1195    2.4666   -0.0004 C.ar    1  LIG1       -0.0445
      7 C           1.5181    2.4458   -0.0008 C.ar    1  LIG1        0.0128
      8 H          -0.4090    3.4165   -0.0003 H       1  LIG1        0.0630
      9 H          -1.9035    1.3287    0.0016 H       1  LIG1        0.0654
     10 O          -0.5709   -1.1108    0.0005 O.3     1  LIG1       -0.5067
     11 H           0.0706   -1.8250    0.0006 H       1  LIG1        0.2921
     12 S           2.1896    3.5589   -0.0012 S.3     1  LIG1       -0.1420
     13 H           1.3580    4.5712   -0.0013 H       1  LIG1        0.1071
     14 C           4.1518   -0.0586    0.0215 C.ar    1  LIG1        0.1252
     15 C           5.5600   -0.0449    0.0220 C.ar    1  LIG1       -0.0107
     16 C           3.4843    1.1831   -0.0005 C.ar    1  LIG1        0.0258
     17 C           6.2742    1.1510    0.0009 C.ar    1  LIG1        0.0023
     18 H           6.0951   -0.9918    0.0390 H       1  LIG1        0.0661
     19 C           4.1968    2.3773   -0.0216 C.ar    1  LIG1       -0.0367
     20 C           5.5955    2.3701   -0.0212 C.ar    1  LIG1        0.0134
     21 H           3.6591    3.3219   -0.0383 H       1  LIG1        0.0636
     22 O           3.5411   -1.2061    0.0416 O.3     1  LIG1       -0.5061
     23 H           4.1895   -1.9141    0.0465 H       1  LIG1        0.2922
     24 S           6.2561    3.4895   -0.0408 S.3     1  LIG1       -0.1420
     25 H           5.4148    4.4936   -0.0474 H       1  LIG1        0.1071
     26 C           8.2534   -0.1086    0.0031 C.ar    1  LIG1        0.1246
     27 C           9.6614   -0.0813    0.0057 C.ar    1  LIG1       -0.0185
     28 C           7.5739    1.1267    0.0018 C.ar    1  LIG1        0.0257
     29 C          10.3639    1.1217    0.0064 C.ar    1  LIG1       -0.0451
     30 H          10.2056   -1.0231    0.0069 H       1  LIG1        0.0654
     31 C           8.2747    2.3280    0.0025 C.ar    1  LIG1       -0.0373
     32 C           9.6734    2.3343    0.0046 C.ar    1  LIG1        0.0055
     33 H           7.7278    3.2674    0.0016 H       1  LIG1        0.0636
     34 H          11.6639    1.1100    0.0086 H       1  LIG1        0.0630
     35 O           7.6539   -1.2622    0.0024 O.3     1  LIG1       -0.5062
     36 H           8.3092   -1.9638    0.0022 H       1  LIG1        0.2922
     37 S          10.3231    3.4603    0.0054 S.3     1  LIG1       -0.1426
     38 H           9.4721    4.4562    0.0057 H       1  LIG1        0.1071
@<TRIPOS>BOND
     1    25    24    1
     2    24    20    1
     3    21    19    1
     4    19    20   ar
     5    19    16   ar
     6    20    17   ar
     7    13    12    1
     8    12     7    1
     9     7     4   ar
    10     7     6   ar
    11    16     4    1
    12    16    14   ar
    13     4     2   ar
    14     6     8    1
    15     6     3   ar
    16     1     3   ar
    17     1     2   ar
    18     1    10    1
    19     3     9    1
    20     2     5    1
    21    10    11    1
    22    17    28    1
    23    17    15   ar
    24    33    31    1
    25    28    31   ar
    26    28    26   ar
    27    36    35    1
    28    35    26    1
    29    31    32   ar
    30    26    27   ar
    31    32    37    1
    32    32    29   ar
    33    37    38    1
    34    27    29   ar
    35    27    30    1
    36    29    34    1
    37    14    15   ar
    38    14    22    1
    39    15    18    1
    40    22    23    1
