@<TRIPOS>MOLECULE
mol_data/noopt/geoms/mol2/4fh13ai(50)4if(40)4ld(150).out
 55 57 0 0 0
SMALL
GASTEIGER

@<TRIPOS>ATOM
      1 C           0.0509    0.0309    0.0002 C.ar    1  LIG1        0.1176
      2 C           1.4592    0.0309    0.0002 C.ar    1  LIG1       -0.0093
      3 C          -0.6045    1.2792    0.0002 C.ar    1  LIG1       -0.0184
      4 C           2.1849    1.2200   -0.0004 C.ar    1  LIG1        0.0224
      5 H           1.9850   -0.9213    0.0004 H       1  LIG1        0.0661
      6 C           0.1195    2.4666   -0.0004 C.ar    1  LIG1       -0.0370
      7 C           1.5181    2.4458   -0.0008 C.ar    1  LIG1        0.0340
      8 H          -0.4090    3.4165   -0.0003 H       1  LIG1        0.0637
      9 H          -1.9035    1.3287    0.0016 H       1  LIG1        0.0655
     10 O          -0.5709   -1.1108    0.0005 O.3     1  LIG1       -0.5067
     11 H           0.0706   -1.8250    0.0006 H       1  LIG1        0.2921
     12 N           2.1896    3.5590   -0.0012 N.pl3   1  LIG1       -0.3575
     13 H           3.0608    3.4225   -0.4727 H       1  LIG1        0.1423
     14 H           1.6626    4.2660   -0.4727 H       1  LIG1        0.1423
     15 C           3.4844    1.1831   -0.0005 C.ar    1  LIG1        0.0494
     16 C           4.3462    0.4609    0.7634 C.ar    1  LIG1       -0.0280
     17 C           5.6739    0.8026    0.3496 C.ar    1  LIG1        0.0100
     18 C           5.5649    1.7172   -0.6502 C.ar    1  LIG1        0.0552
     19 N           4.2262    1.9534   -0.8674 N.ar    1  LIG1       -0.3536
     20 H           3.8542    2.5801   -1.5434 H       1  LIG1        0.1659
     21 H           4.0213   -0.3824    1.6979 H       1  LIG1        0.0645
     22 C           6.7817    0.3274    0.8374 C.3     2  LIG2       -0.0776
     23 H           7.2560    1.0746    1.4388 H       1  LIG1        0.0194
     24 H           7.4334    0.0480    0.0360 H       1  LIG1        0.0194
     25 H           6.5673   -0.5312    1.4387 H       1  LIG1        0.0194
     26 C           7.8444    2.1009   -1.0510 C.ar    1  LIG1       -0.0371
     27 C           8.8004    2.7827   -1.8287 C.ar    1  LIG1       -0.0466
     28 C           6.4830    2.3235   -1.3425 C.ar    1  LIG1        0.0056
     29 C           8.4200    3.6478   -2.8521 C.ar    1  LIG1        0.0274
     30 H           9.8564    2.6255   -1.6205 H       1  LIG1        0.0628
     31 C           6.1027    3.1871   -2.3641 C.ar    1  LIG1       -0.0102
     32 C           7.0674    3.8548   -3.1258 C.ar    1  LIG1        0.1253
     33 H           5.0466    3.3421   -2.5694 H       1  LIG1        0.0661
     34 C           8.2607    1.3062   -0.1098 C.3     1  LIG1       -0.0230
     35 H           8.9793    1.8171    0.4964 H       1  LIG1        0.0317
     36 H           8.7138    0.4414   -0.5476 H       1  LIG1        0.0317
     37 H           7.4315    1.0063    0.4964 H       1  LIG1        0.0194
     38 O           6.7059    4.6610   -4.0795 O.3     1  LIG1       -0.5061
     39 H           5.7911    4.4895   -4.3145 H       1  LIG1        0.2922
     40 C           9.5002    5.6535   -3.4127 C.ar    1  LIG1        0.1280
     41 C          10.4974    6.2707   -4.1924 C.ar    1  LIG1       -0.0181
     42 C           9.3291    4.2608   -3.5504 C.ar    1  LIG1        0.0285
     43 C          11.2908    5.5357   -5.0704 C.ar    1  LIG1       -0.0409
     44 H          10.6461    7.3444   -4.1018 H       1  LIG1        0.0655
     45 C          10.1208    3.5265   -4.4268 C.ar    1  LIG1       -0.0330
     46 C          11.1065    4.1579   -5.1925 C.ar    1  LIG1        0.0526
     47 H           9.9695    2.4537   -4.5152 H       1  LIG1        0.0638
     48 H          12.2023    6.1380   -5.7750 H       1  LIG1        0.0631
     49 O           8.7918    6.3920   -2.6110 O.3     1  LIG1       -0.4945
     50 C           9.5045    7.5963   -2.3167 C.3     1  LIG1        0.0788
     51 H           8.9210    8.2039   -1.6569 H       1  LIG1        0.0660
     52 H          10.4358    7.3543   -1.8486 H       1  LIG1        0.0660
     53 H           9.6900    8.1318   -3.2242 H       1  LIG1        0.0660
     54 N          12.4935    2.8566   -6.7315 N.1     1  LIG1       -0.1909
     55 C          11.8435    3.4665   -6.0102 C.1     1  LIG1        0.0992
@<TRIPOS>BOND
     1    54    55    3
     2    55    46    1
     3    48    43    1
     4    46    43   ar
     5    46    45   ar
     6    43    41   ar
     7    47    45    1
     8    45    42   ar
     9    39    38    1
    10    41    44    1
    11    41    40   ar
    12    38    32    1
    13    42    40   ar
    14    42    29    1
    15    40    49    1
    16    53    50    1
    17    32    29   ar
    18    32    31   ar
    19    29    27   ar
    20    49    50    1
    21    33    31    1
    22    31    28   ar
    23    50    52    1
    24    50    51    1
    25    27    30    1
    26    27    26   ar
    27    20    19    1
    28    28    26   ar
    29    28    18    1
    30    26    34    1
    31    19    18   ar
    32    19    15   ar
    33    18    17   ar
    34    36    34    1
    35    14    12    1
    36    13    12    1
    37    34    35    1
    38    12     7    1
    39     7     4   ar
    40     7     6   ar
    41    15     4    1
    42    15    16   ar
    43     4     2   ar
    44     6     8    1
    45     6     3   ar
    46     2     1   ar
    47     2     5    1
    48     3     1   ar
    49     3     9    1
    50     1    10    1
    51    10    11    1
    52    24    22    1
    53    17    16   ar
    54    37    22    1
    55    16    21    1
    56    22    25    1
    57    22    23    1
