@<TRIPOS>MOLECULE
mol_data/noopt/geoms/mol2/4fh4ie-13lh-6df-4ha13ae-12he6fd-.out
 99 99 0 0 0
SMALL
GASTEIGER

@<TRIPOS>ATOM
      1 C           0.0509    0.0309    0.0002 C.ar    1  LIG1        0.1175
      2 C           1.4592    0.0309    0.0002 C.ar    1  LIG1       -0.0110
      3 C          -0.6045    1.2792    0.0002 C.ar    1  LIG1       -0.0184
      4 C           2.1849    1.2200   -0.0004 C.ar    1  LIG1        0.0028
      5 H           1.9850   -0.9213    0.0004 H       1  LIG1        0.0661
      6 C           0.1195    2.4666   -0.0004 C.ar    1  LIG1       -0.0370
      7 C           1.5181    2.4458   -0.0008 C.ar    1  LIG1        0.0323
      8 H          -0.4090    3.4165   -0.0003 H       1  LIG1        0.0637
      9 H          -1.9035    1.3287    0.0016 H       1  LIG1        0.0655
     10 O          -0.5709   -1.1108    0.0005 O.3     1  LIG1       -0.5067
     11 H           0.0706   -1.8250    0.0006 H       1  LIG1        0.2921
     12 N           2.1896    3.5590   -0.0012 N.pl3   1  LIG1       -0.3575
     13 H           3.0608    3.4225   -0.4727 H       1  LIG1        0.1423
     14 H           1.6626    4.2660   -0.4727 H       1  LIG1        0.1423
     15 C           4.1518   -0.0586    0.0215 C.3     1  LIG1        0.0139
     16 C           5.5600   -0.0449    0.0220 C.3     2  LIG2        0.0000
     17 C           3.4843    1.1831   -0.0005 C.2     1  LIG1       -0.0304
     18 C           6.2742    1.1510    0.0009 C.3     1  LIG1        0.0726
     19 H           6.0951   -0.9918    0.0390 H       3  LIG3        0.0194
     20 C           4.1968    2.3773   -0.0216 C.2     1  LIG1       -0.0526
     21 C           5.5955    2.3701   -0.0212 C.2     1  LIG1       -0.0242
     22 H           3.6591    3.3219   -0.0383 H       1  LIG1        0.0624
     23 C           3.5410   -1.2063    0.0416 C.3     1  LIG1       -0.0538
     24 H           4.1484   -1.9247    0.5515 H       1  LIG1        0.0239
     25 H           3.3662   -1.5350   -0.9616 H       1  LIG1        0.0239
     26 H           2.6059   -1.1038    0.5514 H       1  LIG1        0.0239
     27 C           6.2561    3.4895   -0.0408 C.2     1  LIG1       -0.0048
     28 C           6.8666    4.5239   -0.0589 C.3     3  LIG3        0.0000
     29 H           7.4103    5.4453   -0.0751 H       1  LIG1        0.1418
     30 C           7.5739    1.1267    0.0018 C.ar    1  LIG1        0.0787
     31 C           8.4364    0.0761    0.0188 C.ar    1  LIG1        0.2214
     32 C           9.7641    0.6126    0.0120 C.ar    1  LIG1        0.0979
     33 C           9.6546    1.9674   -0.0104 C.ar    1  LIG1        0.0733
     34 N           8.3154    2.2865   -0.0163 N.ar    1  LIG1       -0.3526
     35 H           7.9430    3.2079   -0.0318 H       1  LIG1        0.1658
     36 O           8.1119   -1.1826    0.0389 O.3     1  LIG1       -0.2840
     37 C           6.6874   -1.3081    0.0463 C.3     4  LIG4       -0.0776
     38 H           6.4207   -2.3442    0.0627 H       3  LIG3        0.0194
     39 H           6.2911   -0.8241    0.9144 H       3  LIG3        0.0194
     40 H           6.2844   -0.8500   -0.8327 H       3  LIG3        0.0194
     41 N          10.8721   -0.0673    0.0246 N.pl3   1  LIG1       -0.3534
     42 H          10.7331   -0.9399   -0.4436 H       1  LIG1        0.1425
     43 H          11.5871    0.4519   -0.4436 H       1  LIG1        0.1425
     44 C          10.2152    4.2482   -0.0528 C.ar    1  LIG1        0.0770
     45 C          10.5726    2.8878   -0.0243 C.ar    1  LIG1        0.0241
     46 C          11.9283    2.5547   -0.0109 C.ar    1  LIG1       -0.0409
     47 C          12.8729    3.5824   -0.0266 C.ar    1  LIG1        0.0109
     48 C          12.4170    4.9131   -0.0553 C.ar    1  LIG1        0.0809
     49 N          11.1132    5.2524   -0.0683 N.ar    1  LIG1       -0.2482
     50 H          12.2457    1.5025    0.0104 H       1  LIG1        0.0631
     51 N           7.8644    4.9256   -0.0777 N.3     1  LIG1       -0.2392
     52 C           8.9661    4.6081   -0.0660 C.3     1  LIG1        0.1297
     53 O          14.1470    3.3243   -0.0154 O.3     5  HOH5       -0.2528
     54 H          14.6407    4.1476   -0.0126 H       6  UNK6        0.0000
     55 C          14.6445    5.6493   -0.0783 C.ar    1  LIG1        0.0541
     56 C          15.5138    6.7571   -0.0934 C.ar    1  LIG1       -0.0296
     57 C          13.2579    5.9044   -0.0707 C.ar    1  LIG1        0.0233
     58 C          15.0264    8.0621   -0.1014 C.ar    1  LIG1        0.0002
     59 H          16.5875    6.5829   -0.0993 H       1  LIG1        0.0643
     60 C          12.7707    7.2070   -0.0786 C.ar    1  LIG1       -0.0501
     61 C          13.6504    8.2943   -0.0941 C.ar    1  LIG1       -0.0519
     62 H          11.6972    7.3777   -0.0724 H       1  LIG1        0.0625
     63 N          15.1588    4.4554   -0.0717 N.pl3   1  LIG1       -0.2659
     64 H          14.5417    3.8241   -0.5415 H       0  HOH0        0.2528
     65 H          16.0415    4.4701   -0.5415 H       1  LIG1        0.1699
     66 H          13.1892    9.5097   -0.1013 H       1  LIG1        0.0624
     67 C          15.8576    9.0616   -0.1155 C.ar    1  LIG1        0.0482
     68 C          17.2168    9.0781   -0.1254 C.ar    1  LIG1       -0.0204
     69 C          17.6277   10.4498   -0.1384 C.ar    1  LIG1        0.0506
     70 C          16.5015   11.2112   -0.1376 C.ar    1  LIG1        0.0650
     71 N          15.4155   10.3652   -0.1231 N.ar    1  LIG1       -0.3531
     72 H          14.4633   10.6505   -0.1194 H       1  LIG1        0.1659
     73 H          17.9967    8.0381   -0.1221 H       1  LIG1        0.0651
     74 C          18.8510   10.8898   -0.1494 C.1     1  LIG1       -0.0675
     75 C          19.9812   11.2964   -0.1596 C.1     1  LIG1       -0.1138
     76 H          20.9880   11.6585   -0.1687 H       1  LIG1        0.1232
     77 C          16.3566   12.5030   -0.1468 C.2     1  LIG1        0.0324
     78 C          17.2084   13.5881   -0.1538 C.2     1  LIG1        0.0538
     79 C          16.3732   14.7710   -0.1628 C.2     1  LIG1        0.0932
     80 C          15.0658   14.3301   -0.1608 C.2     1  LIG1        0.2082
     81 O          15.0296   12.9353   -0.1511 O.2     1  LIG1       -0.2857
     82 N          18.5084   13.5792   -0.1526 N.pl3   1  LIG1       -0.3564
     83 H          18.8365   12.7604   -0.6237 H       1  LIG1        0.1424
     84 H          18.8477   14.3933   -0.6237 H       1  LIG1        0.1424
     85 C          16.7992   15.9992   -0.1711 C.1     1  LIG1       -0.0639
     86 C          17.1929   17.1341   -0.1788 C.1     1  LIG1       -0.1137
     87 H          17.5436   18.1450   -0.1857 H       1  LIG1        0.1232
     88 C          12.7265   14.1177   -0.1895 C.ar    1  LIG1        0.2235
     89 C          13.8967   14.8984   -0.1658 C.ar    1  LIG1        0.0854
     90 C          13.7703   16.2887   -0.1475 C.ar    1  LIG1       -0.0269
     91 C          12.4910   16.8472   -0.1537 C.ar    1  LIG1        0.0707
     92 C          11.3810   15.9830   -0.1781 C.ar    1  LIG1        0.0488
     93 N          11.4847   14.6398   -0.1957 N.ar    1  LIG1       -0.2196
     94 H          14.6619   16.9313   -0.1298 H       1  LIG1        0.0640
     95 H          10.1699   16.4553   -0.1846 H       1  LIG1        0.0844
     96 O          12.7929   12.8194   -0.2070 O.3     1  LIG1       -0.4919
     97 H          13.7130   12.5456   -0.2113 H       1  LIG1        0.2937
     98 N          12.1696   19.2724   -0.1233 N.1     1  LIG1       -0.1908
     99 C          12.3202   18.1359   -0.1375 C.1     1  LIG1        0.1007
@<TRIPOS>BOND
     1    25    23    1
     2    40    37    1
     3    84    82    1
     4    83    82    1
     5    65    63    1
     6    64    53    1
     7    14    12    1
     8    13    12    1
     9    43    41    1
    10    42    41    1
    11    97    96    1
    12    96    88    1
    13    93    88   ar
    14    93    92   ar
    15    88    89   ar
    16    87    86    1
    17    95    92    1
    18    86    85    3
    19    92    91   ar
    20    85    79    1
    21    76    75    1
    22    89    80    1
    23    89    90   ar
    24    79    80    2
    25    79    78    1
    26    80    81    1
    27    75    74    3
    28    78    82    1
    29    78    77    2
    30    91    90   ar
    31    91    99    1
    32    74    69    1
    33    90    94    1
    34    77    70    1
    35    69    70   ar
    36    69    68   ar
    37    70    71   ar
    38    99    98    3
    39    68    73    1
    40    68    67   ar
    41    71    72    1
    42    71    67   ar
    43    67    58    1
    44    58    61   ar
    45    58    56   ar
    46    66    61    1
    47    59    56    1
    48    61    60   ar
    49    56    55   ar
    50    60    62    1
    51    60    57   ar
    52    55    63    1
    53    55    57   ar
    54    51    29    1
    55    51    52    1
    56    57    48    1
    57    49    48   ar
    58    49    44   ar
    59    52    44    1
    60    48    47   ar
    61    44    45   ar
    62    27    21    2
    63    22    20    1
    64    35    34    1
    65    47    46   ar
    66    45    46   ar
    67    45    33    1
    68    20    21    1
    69    20    17    2
    70    21    18    1
    71    34    33   ar
    72    34    30   ar
    73    46    50    1
    74    33    32   ar
    75    12     7    1
    76     7     4   ar
    77     7     6   ar
    78    17     4    1
    79    17    15    1
    80     4     2   ar
    81     6     8    1
    82     6     3   ar
    83     1     2   ar
    84     1     3   ar
    85     1    10    1
    86     2     5    1
    87     3     9    1
    88    10    11    1
    89    18    30    1
    90    30    31   ar
    91    32    31   ar
    92    32    41    1
    93    31    36    1
    94    15    23    1
    95    19    37    1
    96    23    26    1
    97    23    24    1
    98    37    38    1
    99    37    39    1
