@<TRIPOS>MOLECULE
mol_data/noopt/geoms/mol2/4fh6ll(280)13ih(310)4aa(310).out
 55 58 0 0 0
SMALL
GASTEIGER

@<TRIPOS>ATOM
      1 C           0.0509    0.0309    0.0002 C.ar    1  LIG1        0.1176
      2 C           1.4592    0.0309    0.0002 C.ar    1  LIG1       -0.0105
      3 C          -0.6045    1.2792    0.0002 C.ar    1  LIG1       -0.0184
      4 C           2.1849    1.2200   -0.0004 C.ar    1  LIG1        0.0114
      5 H           1.9850   -0.9213    0.0004 H       1  LIG1        0.0661
      6 C           0.1195    2.4666   -0.0004 C.ar    1  LIG1       -0.0370
      7 C           1.5181    2.4458   -0.0008 C.ar    1  LIG1        0.0327
      8 H          -0.4090    3.4165   -0.0003 H       1  LIG1        0.0637
      9 H          -1.9035    1.3287    0.0016 H       1  LIG1        0.0655
     10 O          -0.5709   -1.1108    0.0005 O.3     1  LIG1       -0.5067
     11 H           0.0706   -1.8250    0.0006 H       1  LIG1        0.2921
     12 N           2.1896    3.5590   -0.0012 N.pl3   1  LIG1       -0.3575
     13 H           3.0608    3.4225   -0.4727 H       1  LIG1        0.1423
     14 H           1.6626    4.2660   -0.4727 H       1  LIG1        0.1423
     15 C           4.2013    1.3736    1.1949 C.ar    1  LIG1        0.2233
     16 C           3.4844    1.1831   -0.0005 C.ar    1  LIG1        0.0490
     17 C           4.1995    0.9548   -1.1776 C.ar    1  LIG1       -0.0049
     18 C           5.5939    0.9250   -1.1216 C.ar    1  LIG1        0.1482
     19 C           6.2206    1.1268    0.1218 C.ar    1  LIG1        0.1327
     20 N           5.5463    1.3481    1.2671 N.ar    1  LIG1       -0.2072
     21 H           3.6739    0.8026   -2.1309 H       1  LIG1        0.0662
     22 O           3.5801    1.5893    2.3164 O.3     1  LIG1       -0.4792
     23 C           3.7942    2.9419    2.7281 C.3     1  LIG1        0.0804
     24 H           3.2827    3.1191    3.6511 H       1  LIG1        0.0660
     25 H           4.8420    3.1123    2.8627 H       1  LIG1        0.0660
     26 H           3.4182    3.6066    1.9787 H       1  LIG1        0.0660
     27 O           6.3051    0.7163   -2.1897 O.3     1  LIG1       -0.4929
     28 C           6.1865   -0.6538   -2.5819 C.3     1  LIG1        0.0789
     29 H           6.7718   -0.8251   -3.4611 H       1  LIG1        0.0660
     30 H           6.5383   -1.2829   -1.7910 H       1  LIG1        0.0660
     31 H           5.1607   -0.8786   -2.7870 H       1  LIG1        0.0660
     32 C           7.5164    1.1080    0.2248 C.ar    1  LIG1        0.0739
     33 C           8.4460    0.3977   -0.4674 C.ar    1  LIG1       -0.0023
     34 C           9.7317    0.7563    0.0513 C.ar    1  LIG1        0.0538
     35 C           9.5313    1.6713    1.0365 C.ar    1  LIG1        0.0681
     36 N           8.1764    1.8891    1.1464 N.ar    1  LIG1       -0.3512
     37 H           7.7436    2.5121    1.7887 H       1  LIG1        0.1660
     38 C           8.2076   -0.4514   -1.4230 C.3     1  LIG1       -0.0359
     39 H           8.8832   -1.2773   -1.3430 H       1  LIG1        0.0279
     40 H           8.3427    0.0295   -2.3693 H       1  LIG1        0.0279
     41 H           7.2009   -0.8050   -1.3430 H       1  LIG1        0.0279
     42 N          10.8806    0.2946   -0.3447 N.pl3   1  LIG1       -0.3561
     43 H          10.7376   -0.5279   -0.8952 H       1  LIG1        0.1424
     44 H          11.3464    0.9873   -0.8952 H       1  LIG1        0.1424
     45 C          11.7497    2.3111    1.4525 C.ar    1  LIG1       -0.0526
     46 C          12.6324    2.9937    2.3118 C.ar    1  LIG1       -0.0611
     47 C          10.3832    2.2902    1.7988 C.ar    1  LIG1        0.0001
     48 C          12.1768    3.6286    3.4650 C.ar    1  LIG1       -0.0617
     49 H          13.6911    3.0220    2.0635 H       1  LIG1        0.0618
     50 C           9.9277    2.9239    2.9499 C.ar    1  LIG1       -0.0526
     51 C          10.8202    3.5971    3.7906 C.ar    1  LIG1       -0.0611
     52 H           8.8692    2.8935    3.1953 H       1  LIG1        0.0624
     53 H          13.0195    4.2497    4.2357 H       1  LIG1        0.0618
     54 H          12.2342    1.7382    0.3909 H       1  LIG1        0.0624
     55 H          10.3887    4.1875    4.8654 H       1  LIG1        0.0618
@<TRIPOS>BOND
     1    29    28    1
     2    31    28    1
     3    28    27    1
     4    28    30    1
     5    40    38    1
     6    27    18    1
     7    21    17    1
     8    38    41    1
     9    38    39    1
    10    38    33    1
    11    17    18   ar
    12    17    16   ar
    13    18    19   ar
    14    44    42    1
    15    43    42    1
    16    14    12    1
    17    13    12    1
    18    33    34   ar
    19    33    32   ar
    20    42    34    1
    21    12     7    1
    22     7     6   ar
    23     7     4   ar
    24    16     4    1
    25    16    15   ar
    26     6     8    1
    27     6     3   ar
    28     4     2   ar
    29     1     3   ar
    30     1     2   ar
    31     1    10    1
    32     3     9    1
    33     2     5    1
    34    10    11    1
    35    34    35   ar
    36    19    32    1
    37    19    20   ar
    38    32    36   ar
    39    54    45    1
    40    35    36   ar
    41    35    47    1
    42    36    37    1
    43    15    20   ar
    44    15    22    1
    45    45    47   ar
    46    45    46   ar
    47    47    50   ar
    48    26    23    1
    49    49    46    1
    50    46    48   ar
    51    22    23    1
    52    23    25    1
    53    23    24    1
    54    50    52    1
    55    50    51   ar
    56    48    51   ar
    57    48    53    1
    58    51    55    1
