@<TRIPOS>MOLECULE
mol_data/noopt/geoms/mol2/4fh6fd(280)4ei(150)4hd(210).out
 54 57 0 0 0
SMALL
GASTEIGER

@<TRIPOS>ATOM
      1 C           0.0509    0.0309    0.0002 C.ar    1  LIG1        0.1176
      2 C           1.4592    0.0309    0.0002 C.ar    1  LIG1       -0.0105
      3 C          -0.6045    1.2792    0.0002 C.ar    1  LIG1       -0.0184
      4 C           2.1849    1.2200   -0.0004 C.ar    1  LIG1        0.0113
      5 H           1.9850   -0.9213    0.0004 H       1  LIG1        0.0661
      6 C           0.1195    2.4666   -0.0004 C.ar    1  LIG1       -0.0370
      7 C           1.5181    2.4458   -0.0008 C.ar    1  LIG1        0.0327
      8 H          -0.4090    3.4165   -0.0003 H       1  LIG1        0.0637
      9 H          -1.9035    1.3287    0.0016 H       1  LIG1        0.0655
     10 O          -0.5709   -1.1108    0.0005 O.3     1  LIG1       -0.5067
     11 H           0.0706   -1.8250    0.0006 H       1  LIG1        0.2921
     12 N           2.1896    3.5590   -0.0012 N.pl3   1  LIG1       -0.3575
     13 H           3.0608    3.4225   -0.4727 H       1  LIG1        0.1423
     14 H           1.6626    4.2660   -0.4727 H       1  LIG1        0.1423
     15 C           4.2013    1.3736    1.1949 C.ar    1  LIG1        0.2209
     16 C           3.4844    1.1831   -0.0005 C.ar    1  LIG1        0.0466
     17 C           4.1995    0.9548   -1.1776 C.ar    1  LIG1       -0.0294
     18 C           5.5939    0.9250   -1.1216 C.ar    1  LIG1        0.0785
     19 C           6.2206    1.1268    0.1218 C.ar    1  LIG1        0.0933
     20 N           5.5463    1.3481    1.2671 N.ar    1  LIG1       -0.2112
     21 H           3.6739    0.8026   -2.1309 H       1  LIG1        0.0639
     22 O           3.5801    1.5893    2.3164 O.3     1  LIG1       -0.4920
     23 H           3.1302    0.7876    2.5928 H       1  LIG1        0.2937
     24 N           6.9323    0.5322   -3.1317 N.1     1  LIG1       -0.1908
     25 C           6.3051    0.7163   -2.1897 C.1     1  LIG1        0.1013
     26 C           8.1834    2.1575    0.8892 C.ar    1  LIG1        0.0345
     27 C           9.5877    2.0915    0.9727 C.ar    1  LIG1       -0.0377
     28 C           7.5163    1.1080    0.2248 C.ar    1  LIG1        0.0174
     29 C          10.2983    1.0281    0.4205 C.ar    1  LIG1       -0.0120
     30 H          10.1224    2.8909    1.4808 H       1  LIG1        0.0636
     31 C           8.2252    0.0462   -0.3266 C.ar    1  LIG1       -0.0479
     32 C           9.6200   -0.0016   -0.2329 C.ar    1  LIG1       -0.0420
     33 H           7.6879   -0.7509   -0.8340 H       1  LIG1        0.0627
     34 C           7.5759    3.1748    1.4240 C.1     1  LIG1       -0.0690
     35 C           7.0146    4.1147    1.9183 C.1     1  LIG1       -0.1139
     36 H           6.5146    4.9520    2.3585 H       1  LIG1        0.1232
     37 C          10.2776   -0.9968   -0.7506 C.3     1  LIG1       -0.0391
     38 H          11.2976   -0.9557   -0.4299 H       1  LIG1        0.0278
     39 H          10.2366   -0.9346   -1.8181 H       1  LIG1        0.0278
     40 H           9.8397   -1.9189   -0.4299 H       1  LIG1        0.0278
     41 C          12.3635    2.0404   -0.0424 C.ar    1  LIG1        0.0324
     42 C          13.7637    1.9618    0.0866 C.ar    1  LIG1       -0.0392
     43 C          11.5944    0.9991    0.5161 C.ar    1  LIG1        0.0043
     44 C          14.3733    0.8948    0.7427 C.ar    1  LIG1       -0.0426
     45 H          14.3761    2.7546   -0.3373 H       1  LIG1        0.0636
     46 C          12.2025   -0.0664    1.1713 C.ar    1  LIG1       -0.0349
     47 C          13.5949   -0.1263    1.2894 C.ar    1  LIG1        0.0525
     48 H          11.5876   -0.8572    1.5934 H       1  LIG1        0.0637
     49 H          15.6687    0.8542    0.8435 H       1  LIG1        0.0631
     50 N          11.8528    3.0608   -0.6653 N.pl3   1  LIG1       -0.3575
     51 H          12.5531    3.4859   -1.2388 H       1  LIG1        0.1423
     52 H          11.0929    2.7550   -1.2388 H       1  LIG1        0.1423
     53 N          14.6541   -2.0054    2.4438 N.1     1  LIG1       -0.1909
     54 C          14.1577   -1.1248    1.9028 C.1     1  LIG1        0.0992
@<TRIPOS>BOND
     1    24    25    3
     2    25    18    1
     3    21    17    1
     4    39    37    1
     5    52    50    1
     6    51    50    1
     7    17    18   ar
     8    17    16   ar
     9    18    19   ar
    10    33    31    1
    11    37    40    1
    12    37    38    1
    13    37    32    1
    14    50    41    1
    15    14    12    1
    16    13    12    1
    17    45    42    1
    18    31    32   ar
    19    31    28   ar
    20    32    29   ar
    21    41    42   ar
    22    41    43   ar
    23    12     7    1
    24     7     6   ar
    25     7     4   ar
    26    16     4    1
    27    16    15   ar
    28     6     8    1
    29     6     3   ar
    30     4     2   ar
    31     2     1   ar
    32     2     5    1
    33     1     3   ar
    34     1    10    1
    35     3     9    1
    36    10    11    1
    37    42    44   ar
    38    19    28    1
    39    19    20   ar
    40    28    26   ar
    41    29    43    1
    42    29    27   ar
    43    43    46   ar
    44    44    49    1
    45    44    47   ar
    46    26    27   ar
    47    26    34    1
    48    27    30    1
    49    46    47   ar
    50    46    48    1
    51    15    20   ar
    52    15    22    1
    53    47    54    1
    54    34    35    3
    55    54    53    3
    56    35    36    1
    57    22    23    1
