@<TRIPOS>MOLECULE
mol_data/noopt/geoms/mol2/4fh6il(30)13if(300)12di(170).out
 54 53 0 0 0
SMALL
GASTEIGER

@<TRIPOS>ATOM
      1 C           0.0509    0.0309    0.0002 C.ar    1  LIG1        0.1175
      2 C           1.4592    0.0309    0.0002 C.ar    1  LIG1       -0.0118
      3 C          -0.6045    1.2792    0.0002 C.ar    1  LIG1       -0.0196
      4 C           2.1849    1.2200   -0.0004 C.ar    1  LIG1       -0.0045
      5 H           1.9850   -0.9213    0.0004 H       1  LIG1        0.0660
      6 C           0.1195    2.4666   -0.0004 C.ar    1  LIG1       -0.0500
      7 C           1.5181    2.4458   -0.0008 C.ar    1  LIG1       -0.0093
      8 H          -0.4090    3.4165   -0.0003 H       1  LIG1        0.0625
      9 H          -1.9035    1.3287    0.0016 H       1  LIG1        0.0654
     10 O          -0.5709   -1.1108    0.0005 O.3     1  LIG1       -0.5067
     11 H           0.0706   -1.8250    0.0006 H       1  LIG1        0.2921
     12 N           2.1896    3.5590   -0.0012 N.3     2  LIG2       -0.1629
     13 H           3.0608    3.4225   -0.4727 H       2  LIG2        0.0265
     14 H           1.6626    4.2660   -0.4727 H       1  LIG1        0.1629
     15 C           4.2250    2.2141   -0.6070 C.ar    1  LIG1        0.0984
     16 C           3.4844    1.1831   -0.0005 C.ar    1  LIG1        0.0138
     17 C           4.1761    0.1278    0.5968 C.ar    1  LIG1       -0.0079
     18 C           5.5717    0.1375    0.5684 C.ar    1  LIG1        0.1480
     19 C           6.2230    1.2132   -0.0626 C.ar    1  LIG1        0.1297
     20 N           5.5714    2.2395   -0.6436 N.ar    1  LIG1       -0.2394
     21 H           3.6316   -0.6961    1.0795 H       1  LIG1        0.0661
     22 C           3.6260    3.2182   -1.1761 C.3     3  LIG3       -0.0531
     23 H           2.5983    3.2355   -0.8786 H       4  UNK4        0.0000
     24 H           3.6878    3.1144   -2.2393 H       5  UNK5        0.0000
     25 H           4.0989    4.1307   -0.8787 H       2  LIG2        0.0265
     26 O           6.2617   -0.8219    1.1102 O.3     1  LIG1       -0.4929
     27 C           5.4206   -1.9612    1.3090 C.3     1  LIG1        0.0789
     28 H           5.9889   -2.7507    1.7548 H       1  LIG1        0.0660
     29 H           4.6093   -1.6972    1.9548 H       1  LIG1        0.0660
     30 H           5.0343   -2.2882    0.3663 H       1  LIG1        0.0660
     31 C           7.5209    1.2672   -0.1149 C.ar    1  LIG1        0.0756
     32 C           8.3890    0.7534   -1.0261 C.ar    1  LIG1        0.0186
     33 C           9.7110    1.1058   -0.6033 C.ar    1  LIG1        0.1486
     34 C           9.5925    1.8210    0.5467 C.ar    1  LIG1        0.1261
     35 N           8.2533    1.9218    0.8495 N.ar    1  LIG1       -0.3473
     36 H           7.8753    2.3929    1.6389 H       1  LIG1        0.1662
     37 C           8.0734    0.0673   -2.0846 C.3     1  LIG1       -0.0342
     38 H           8.6088   -0.8591   -2.0820 H       1  LIG1        0.0279
     39 H           8.3301    0.6251   -2.9609 H       1  LIG1        0.0279
     40 H           7.0215   -0.1287   -2.0820 H       1  LIG1        0.0279
     41 O          10.8219    0.8004   -1.2057 O.3     1  LIG1       -0.5043
     42 H          11.3355    1.5977   -1.3541 H       1  LIG1        0.2922
     43 C          10.5028    2.3570    1.3042 C.ar    1  LIG1        0.1720
     44 C          10.6321    3.5428    1.9973 C.ar    1  LIG1        0.1018
     45 C          11.9241    3.5029    2.6500 C.ar    1  LIG1        0.0054
     46 C          12.4989    2.2949    2.3124 C.ar    1  LIG1        0.0968
     47 O          11.6417    1.5705    1.4833 O.2     1  LIG1       -0.4597
     48 H          13.6208    1.6956    2.5812 H       1  LIG1        0.1032
     49 N           9.0250    5.3827    2.1299 N.1     1  LIG1       -0.1907
     50 C           9.7782    4.5204    2.0678 C.1     1  LIG1        0.1033
     51 C          12.4218    4.4387    3.4033 C.3     1  LIG1       -0.0355
     52 H          11.6497    4.8476    4.0211 H       1  LIG1        0.0279
     53 H          12.8326    5.2115    2.7876 H       1  LIG1        0.0279
     54 H          13.1925    4.0272    4.0210 H       1  LIG1        0.0279
@<TRIPOS>BOND
     1    39    37    1
     2    37    38    1
     3    37    40    1
     4    37    32    1
     5    42    41    1
     6    41    33    1
     7    22    25    1
     8    22    13    1
     9    32    33   ar
    10    32    31   ar
    11    20    15   ar
    12    20    19   ar
    13    15    16   ar
    14    33    34   ar
    15    14    12    1
    16    31    19    1
    17    31    35   ar
    18    19    18   ar
    19     7     4   ar
    20     7     6   ar
    21    16     4    1
    22    16    17   ar
    23     4     2   ar
    24     6     8    1
    25     6     3   ar
    26     2     1   ar
    27     2     5    1
    28     3     1   ar
    29     3     9    1
    30     1    10    1
    31    10    11    1
    32    30    27    1
    33    34    35   ar
    34    34    43    1
    35    18    17   ar
    36    18    26    1
    37    17    21    1
    38    35    36    1
    39    26    27    1
    40    43    47   ar
    41    43    44   ar
    42    27    28    1
    43    27    29    1
    44    47    46   ar
    45    44    50    1
    46    44    45   ar
    47    50    49    3
    48    46    48    1
    49    46    45   ar
    50    45    51    1
    51    53    51    1
    52    51    54    1
    53    51    52    1
