@<TRIPOS>MOLECULE
mol_data/noopt/geoms/mol2/4fh6eh(80)12fh(310)6ie(190).out
 52 55 0 0 0
SMALL
GASTEIGER

@<TRIPOS>ATOM
      1 C           0.0509    0.0309    0.0002 C.ar    1  LIG1        0.1176
      2 C           1.4592    0.0309    0.0002 C.ar    1  LIG1       -0.0106
      3 C          -0.6045    1.2792    0.0002 C.ar    1  LIG1       -0.0184
      4 C           2.1849    1.2200   -0.0004 C.ar    1  LIG1        0.0089
      5 H           1.9850   -0.9213    0.0004 H       1  LIG1        0.0661
      6 C           0.1195    2.4666   -0.0004 C.ar    1  LIG1       -0.0370
      7 C           1.5181    2.4458   -0.0008 C.ar    1  LIG1        0.0327
      8 H          -0.4090    3.4165   -0.0003 H       1  LIG1        0.0637
      9 H          -1.9035    1.3287    0.0016 H       1  LIG1        0.0655
     10 O          -0.5709   -1.1108    0.0005 O.3     1  LIG1       -0.5067
     11 H           0.0706   -1.8250    0.0006 H       1  LIG1        0.2921
     12 N           2.1896    3.5590   -0.0012 N.pl3   1  LIG1       -0.3575
     13 H           3.0608    3.4225   -0.4727 H       1  LIG1        0.1423
     14 H           1.6626    4.2660   -0.4727 H       1  LIG1        0.1423
     15 C           4.2011    1.3740   -1.1960 C.ar    1  LIG1        0.1218
     16 C           3.4844    1.1831   -0.0005 C.ar    1  LIG1        0.0196
     17 C           4.1997    0.9551    1.1765 C.ar    1  LIG1       -0.0284
     18 C           5.5941    0.9255    1.1204 C.ar    1  LIG1        0.0547
     19 C           6.2206    1.1273   -0.1231 C.ar    1  LIG1        0.1316
     20 N           5.5461    1.3487   -1.2683 N.ar    1  LIG1       -0.2327
     21 H           3.6741    0.8006    2.1296 H       1  LIG1        0.0643
     22 C           3.5798    1.5896   -2.3174 C.1     1  LIG1       -0.0492
     23 C           3.0057    1.7888   -3.3535 C.1     1  LIG1       -0.1124
     24 H           2.4943    1.9663   -4.2765 H       1  LIG1        0.1232
     25 N           6.3054    0.7167    2.1884 N.pl3   1  LIG1       -0.3562
     26 H           6.6294   -0.2293    2.1933 H       1  LIG1        0.1424
     27 H           7.0894    1.3375    2.1933 H       1  LIG1        0.1424
     28 C           7.5163    1.1089   -0.2263 C.ar    1  LIG1        0.1987
     29 C           8.4316    0.4266   -1.0008 C.ar    1  LIG1        0.1861
     30 C           9.7430    0.8909   -0.5990 C.ar    1  LIG1        0.1139
     31 C           9.5420    1.8267    0.3948 C.ar    1  LIG1        0.1618
     32 O           8.1773    1.9786    0.6423 O.2     1  LIG1       -0.4475
     33 O           8.1916   -0.4632   -1.9178 O.3     1  LIG1       -0.5019
     34 H           9.0062   -0.9181   -2.1438 H       1  LIG1        0.2924
     35 N          10.8747    0.4872   -1.0954 N.pl3   1  LIG1       -0.3522
     36 H          10.7209   -0.3248   -1.6584 H       1  LIG1        0.1425
     37 H          11.2695    1.2132   -1.6584 H       1  LIG1        0.1425
     38 C          11.4784    2.0472    1.7064 C.ar    1  LIG1        0.0490
     39 C          10.3086    2.5758    1.1304 C.ar    1  LIG1        0.0414
     40 C           9.9953    3.9154    1.3676 C.ar    1  LIG1       -0.0324
     41 C          10.8531    4.6752    2.1648 C.ar    1  LIG1        0.0434
     42 C          11.9994    4.0567    2.6967 C.ar    1  LIG1        0.0433
     43 N          12.3170    2.7657    2.4779 N.ar    1  LIG1       -0.2582
     44 H           9.0893    4.3631    0.9352 H       1  LIG1        0.0638
     45 H          12.8284    4.7224    3.4447 H       1  LIG1        0.0842
     46 C          11.8125    0.8053    1.5144 C.3     1  LIG1       -0.0217
     47 H          12.7671    0.6197    1.9606 H       1  LIG1        0.0293
     48 H          11.8655    0.6085    0.4639 H       1  LIG1        0.0293
     49 H          11.0798    0.1658    1.9605 H       1  LIG1        0.0293
     50 C          10.6055    5.9265    2.4154 C.1     1  LIG1       -0.0681
     51 C          10.3767    7.0828    2.6469 C.1     1  LIG1       -0.1139
     52 H          10.1729    8.1128    2.8531 H       1  LIG1        0.1232
@<TRIPOS>BOND
     1    24    23    1
     2    23    22    3
     3    22    15    1
     4    34    33    1
     5    33    29    1
     6    37    35    1
     7    36    35    1
     8    20    15   ar
     9    20    19   ar
    10    15    16   ar
    11    35    30    1
    12    29    30   ar
    13    29    28   ar
    14    30    31   ar
    15    14    12    1
    16    13    12    1
    17    28    19    1
    18    28    32   ar
    19    19    18   ar
    20    12     7    1
    21     7     6   ar
    22     7     4   ar
    23    16     4    1
    24    16    17   ar
    25     6     8    1
    26     6     3   ar
    27     4     2   ar
    28     2     1   ar
    29     2     5    1
    30     3     1   ar
    31     3     9    1
    32     1    10    1
    33    10    11    1
    34    31    32   ar
    35    31    39    1
    36    48    46    1
    37    44    40    1
    38    18    17   ar
    39    18    25    1
    40    39    40   ar
    41    39    38   ar
    42    17    21    1
    43    40    41   ar
    44    46    38    1
    45    46    49    1
    46    46    47    1
    47    38    43   ar
    48    41    50    1
    49    41    42   ar
    50    25    27    1
    51    25    26    1
    52    50    51    3
    53    43    42   ar
    54    51    52    1
    55    42    45    1
