@<TRIPOS>MOLECULE
mol_data/noopt/geoms/mol2/4fi.out
 16 16 0 0 0
SMALL
GASTEIGER

@<TRIPOS>ATOM
      1 C           0.0509    0.0309    0.0002 C.ar    1  LIG1        0.1169
      2 C           1.4592    0.0309    0.0002 C.ar    1  LIG1       -0.0199
      3 C          -0.6045    1.2792    0.0002 C.ar    1  LIG1       -0.0199
      4 C           2.1849    1.2200   -0.0004 C.ar    1  LIG1       -0.0554
      5 H           1.9850   -0.9213    0.0004 H       1  LIG1        0.0654
      6 C           0.1195    2.4666   -0.0004 C.ar    1  LIG1       -0.0554
      7 C           1.5181    2.4458   -0.0008 C.ar    1  LIG1       -0.0502
      8 H          -0.4090    3.4165   -0.0003 H       1  LIG1        0.0621
      9 H           3.4844    1.1831   -0.0005 H       1  LIG1        0.0621
     10 H          -1.9035    1.3287    0.0016 H       1  LIG1        0.0654
     11 O          -0.5709   -1.1108    0.0005 O.3     1  LIG1       -0.5068
     12 H           0.0706   -1.8250    0.0006 H       1  LIG1        0.2921
     13 C           2.1897    3.5592   -0.0012 C.3     1  LIG1       -0.0397
     14 H           1.6260    4.3160    0.5031 H       1  LIG1        0.0278
     15 H           2.3738    3.8644   -1.0102 H       1  LIG1        0.0278
     16 H           3.1221    3.4135    0.5030 H       1  LIG1        0.0278
@<TRIPOS>BOND
     1    15    13    1
     2    13     7    1
     3    13    16    1
     4    13    14    1
     5     7     4   ar
     6     7     6   ar
     7     9     4    1
     8     4     2   ar
     9     6     8    1
    10     6     3   ar
    11     1     2   ar
    12     1     3   ar
    13     1    11    1
    14     2     5    1
    15     3    10    1
    16    11    12    1
