@<TRIPOS>MOLECULE
mol_data/noopt/geoms/mol2/4fi13da6ea-4eh.out
 50 53 0 0 0
SMALL
GASTEIGER

@<TRIPOS>ATOM
      1 C           0.0509    0.0309    0.0002 C.ar    1  LIG1        0.1175
      2 C           1.4592    0.0309    0.0002 C.ar    1  LIG1       -0.0108
      3 C          -0.6045    1.2792    0.0002 C.ar    1  LIG1       -0.0199
      4 C           2.1849    1.2200   -0.0004 C.ar    1  LIG1        0.0059
      5 H           1.9850   -0.9213    0.0004 H       1  LIG1        0.0661
      6 C           0.1195    2.4666   -0.0004 C.ar    1  LIG1       -0.0548
      7 C           1.5181    2.4458   -0.0008 C.ar    1  LIG1       -0.0411
      8 H          -0.4090    3.4165   -0.0003 H       1  LIG1        0.0622
      9 H          -1.9035    1.3287    0.0016 H       1  LIG1        0.0654
     10 O          -0.5709   -1.1108    0.0005 O.3     1  LIG1       -0.5067
     11 H           0.0706   -1.8250    0.0006 H       1  LIG1        0.2921
     12 C           2.1897    3.5592   -0.0012 C.3     1  LIG1       -0.0391
     13 H           1.6260    4.3160    0.5031 H       1  LIG1        0.0278
     14 H           2.3738    3.8644   -1.0102 H       1  LIG1        0.0278
     15 H           3.1221    3.4135    0.5030 H       1  LIG1        0.0278
     16 C           3.4844    1.1831   -0.0005 C.ar    1  LIG1        0.0649
     17 C           4.3366    0.1240   -0.0009 C.ar    1  LIG1        0.0776
     18 C           5.6695    0.6476    0.0003 C.ar    1  LIG1       -0.0183
     19 C           5.5731    2.0036   -0.0004 C.ar    1  LIG1        0.0508
     20 N           4.2371    2.3357   -0.0004 N.ar    1  LIG1       -0.3530
     21 H           3.8737    3.2609   -0.0009 H       1  LIG1        0.1659
     22 N           3.7028   -2.2391   -0.0007 N.1     1  LIG1       -0.1908
     23 C           3.9999   -1.1316   -0.0008 C.1     1  LIG1        0.1013
     24 H           6.7708   -0.0431    0.0013 H       1  LIG1        0.0652
     25 C           6.1560    4.2792   -0.0206 C.ar    1  LIG1        0.1229
     26 C           6.5000    2.9152    0.0001 C.ar    1  LIG1        0.0322
     27 C           7.8523    2.5689    0.0214 C.ar    1  LIG1       -0.0479
     28 C           8.8068    3.5874    0.0210 C.ar    1  LIG1       -0.0350
     29 C           8.3640    4.9227   -0.0008 C.ar    1  LIG1        0.0736
     30 N           7.0636    5.2747   -0.0213 N.ar    1  LIG1       -0.2377
     31 H           8.1594    1.5136    0.0369 H       1  LIG1        0.0626
     32 C           4.9105    4.6513   -0.0408 C.1     1  LIG1       -0.0491
     33 C           3.7597    4.9951   -0.0594 C.1     1  LIG1       -0.1124
     34 H           2.7346    5.3013   -0.0759 H       1  LIG1        0.1232
     35 H          10.0782    3.3170    0.0402 H       1  LIG1        0.0639
     36 C          10.5985    5.6375   -0.0018 C.ar    1  LIG1        0.0340
     37 C          11.4786    6.7369   -0.0016 C.ar    1  LIG1       -0.0440
     38 C           9.2144    5.9059   -0.0020 C.ar    1  LIG1        0.0175
     39 C          11.0038    8.0466   -0.0020 C.ar    1  LIG1       -0.0399
     40 H          12.5506    6.5524   -0.0013 H       1  LIG1        0.0630
     41 C           8.7399    7.2132   -0.0024 C.ar    1  LIG1       -0.0307
     42 C           9.6301    8.2920   -0.0026 C.ar    1  LIG1        0.0252
     43 H           7.6680    7.3942   -0.0024 H       1  LIG1        0.0643
     44 H          11.8447    9.0380   -0.0019 H       1  LIG1        0.0636
     45 C          11.1013    4.4386   -0.0016 C.1     1  LIG1       -0.0690
     46 C          11.5658    3.3309   -0.0015 C.1     1  LIG1       -0.1139
     47 H          11.9797    2.3442   -0.0013 H       1  LIG1        0.1232
     48 N           9.1807    9.5119   -0.0029 N.pl3   1  LIG1       -0.3579
     49 H           9.8317   10.1068   -0.4743 H       1  LIG1        0.1423
     50 H           8.2994    9.5423   -0.4744 H       1  LIG1        0.1423
@<TRIPOS>BOND
     1    14    12    1
     2    50    48    1
     3    49    48    1
     4    34    33    1
     5    33    32    3
     6    32    25    1
     7    30    25   ar
     8    30    29   ar
     9    25    26   ar
    10    48    42    1
    11    42    41   ar
    12    42    39   ar
    13    43    41    1
    14    41    38   ar
    15    39    44    1
    16    39    37   ar
    17    38    36   ar
    18    38    29    1
    19    36    45    1
    20    36    37   ar
    21    45    46    3
    22    37    40    1
    23    46    47    1
    24    12     7    1
    25    12    15    1
    26    12    13    1
    27    17    23    1
    28    17    16   ar
    29    17    18   ar
    30    21    20    1
    31    23    22    3
    32    29    28   ar
    33     7     6   ar
    34     7     4   ar
    35    16     4    1
    36    16    20   ar
    37     6     8    1
    38     6     3   ar
    39     4     2   ar
    40    20    19   ar
    41    19    26    1
    42    19    18   ar
    43    26    27   ar
    44     1     3   ar
    45     1     2   ar
    46     1    10    1
    47     3     9    1
    48     2     5    1
    49    18    24    1
    50    10    11    1
    51    28    27   ar
    52    28    35    1
    53    27    31    1
