@<TRIPOS>MOLECULE
mol_data/noopt/geoms/mol2/4fi13di(210)6la(330)13fa(300).out
 50 53 0 0 0
SMALL
GASTEIGER

@<TRIPOS>ATOM
      1 C           0.0509    0.0309    0.0002 C.ar    1  LIG1        0.1175
      2 C           1.4592    0.0309    0.0002 C.ar    1  LIG1       -0.0108
      3 C          -0.6045    1.2792    0.0002 C.ar    1  LIG1       -0.0199
      4 C           2.1849    1.2200   -0.0004 C.ar    1  LIG1        0.0059
      5 H           1.9850   -0.9213    0.0004 H       1  LIG1        0.0661
      6 C           0.1195    2.4666   -0.0004 C.ar    1  LIG1       -0.0548
      7 C           1.5181    2.4458   -0.0008 C.ar    1  LIG1       -0.0411
      8 H          -0.4090    3.4165   -0.0003 H       1  LIG1        0.0622
      9 H          -1.9035    1.3287    0.0016 H       1  LIG1        0.0654
     10 O          -0.5709   -1.1108    0.0005 O.3     1  LIG1       -0.5067
     11 H           0.0706   -1.8250    0.0006 H       1  LIG1        0.2921
     12 C           2.1897    3.5592   -0.0012 C.3     1  LIG1       -0.0391
     13 H           1.6260    4.3160    0.5031 H       1  LIG1        0.0278
     14 H           2.3738    3.8644   -1.0102 H       1  LIG1        0.0278
     15 H           3.1221    3.4135    0.5030 H       1  LIG1        0.0278
     16 C           3.4844    1.1831   -0.0005 C.ar    1  LIG1        0.0651
     17 C           4.3919    2.0715   -0.4854 C.ar    1  LIG1        0.0805
     18 C           5.6947    1.5380   -0.2234 C.ar    1  LIG1       -0.0070
     19 C           5.5261    0.3479    0.4115 C.ar    1  LIG1        0.0562
     20 N           4.1744    0.1265    0.5496 N.ar    1  LIG1       -0.3528
     21 H           3.7621   -0.6695    0.9790 H       1  LIG1        0.1660
     22 N           3.8852    4.1889   -1.6017 N.1     1  LIG1       -0.1908
     23 C           4.1227    3.1966   -1.0785 C.1     1  LIG1        0.1016
     24 C           6.8316    2.0878   -0.5337 C.3     1  LIG1       -0.0365
     25 H           6.8714    3.0775   -0.1290 H       1  LIG1        0.0279
     26 H           6.9267    2.1338   -1.5985 H       1  LIG1        0.0279
     27 H           7.6320    1.5044   -0.1290 H       1  LIG1        0.0279
     28 C           7.4691   -0.0761    1.6618 C.ar    1  LIG1        0.2244
     29 C           6.4029   -0.5056    0.8506 C.ar    1  LIG1        0.0601
     30 C           6.3117   -1.8618    0.5323 C.ar    1  LIG1       -0.0454
     31 C           7.2799   -2.7355    1.0302 C.ar    1  LIG1       -0.0333
     32 C           8.3087   -2.2105    1.8336 C.ar    1  LIG1        0.0945
     33 N           8.4117   -0.9051    2.1508 N.ar    1  LIG1       -0.2108
     34 H           5.4932   -2.2343   -0.0998 H       1  LIG1        0.0626
     35 O           7.5965    1.1766    1.9856 O.3     1  LIG1       -0.4792
     36 C           8.9844    1.5000    2.1043 C.3     1  LIG1        0.0804
     37 H           9.0888    2.5311    2.3706 H       1  LIG1        0.0660
     38 H           9.4295    0.8892    2.8618 H       1  LIG1        0.0660
     39 H           9.4735    1.3218    1.1695 H       1  LIG1        0.0660
     40 H           7.2393   -4.0069    0.7623 H       1  LIG1        0.0640
     41 C           9.2331   -2.9839    2.3207 C.ar    1  LIG1        0.1070
     42 C           9.7595   -4.1408    1.8385 C.ar    1  LIG1        0.1435
     43 C          10.7503   -4.5822    2.7735 C.ar    1  LIG1       -0.0021
     44 C          10.7869   -3.6748    3.7851 C.ar    1  LIG1        0.0058
     45 N           9.8593   -2.6948    3.5121 N.ar    1  LIG1       -0.3565
     46 H           9.6720   -1.9038    4.0841 H       1  LIG1        0.1655
     47 H          11.5185   -3.6378    4.8591 H       1  LIG1        0.0808
     48 O           9.4220   -4.7348    0.7325 O.3     1  LIG1       -0.5046
     49 H          10.1256   -5.3283    0.4599 H       1  LIG1        0.2922
     50 H          11.4819   -5.6523    2.6763 H       1  LIG1        0.0669
@<TRIPOS>BOND
     1    22    23    3
     2    26    24    1
     3    23    17    1
     4    14    12    1
     5    24    18    1
     6    24    27    1
     7    24    25    1
     8    17    18   ar
     9    17    16   ar
    10    18    19   ar
    11    34    30    1
    12    12     7    1
    13    12    15    1
    14    12    13    1
    15     7     6   ar
    16     7     4   ar
    17    16     4    1
    18    16    20   ar
    19     6     8    1
    20     6     3   ar
    21     4     2   ar
    22     1     2   ar
    23     1     3   ar
    24     1    10    1
    25     2     5    1
    26     3     9    1
    27    10    11    1
    28    19    20   ar
    29    19    29    1
    30    49    48    1
    31    30    29   ar
    32    30    31   ar
    33    20    21    1
    34    48    42    1
    35    40    31    1
    36    29    28   ar
    37    31    32   ar
    38    39    36    1
    39    28    35    1
    40    28    33   ar
    41    32    33   ar
    42    32    41    1
    43    42    41   ar
    44    42    43   ar
    45    35    36    1
    46    36    37    1
    47    36    38    1
    48    41    45   ar
    49    50    43    1
    50    43    44   ar
    51    45    44   ar
    52    45    46    1
    53    44    47    1
