@<TRIPOS>MOLECULE
mol_data/noopt/geoms/mol2/4fi4fi-.out
 30 29 0 0 0
SMALL
GASTEIGER

@<TRIPOS>ATOM
      1 C           0.0509    0.0309    0.0002 C.ar    1  LIG1        0.1175
      2 C           1.4592    0.0309    0.0002 C.ar    1  LIG1       -0.0122
      3 C          -0.6045    1.2792    0.0002 C.ar    1  LIG1       -0.0199
      4 C           2.1849    1.2200   -0.0004 C.ar    1  LIG1       -0.0107
      5 H           1.9850   -0.9213    0.0004 H       1  LIG1        0.0660
      6 C           0.1195    2.4666   -0.0004 C.ar    1  LIG1       -0.0545
      7 C           1.5181    2.4458   -0.0008 C.ar    1  LIG1       -0.0391
      8 H          -0.4090    3.4165   -0.0003 H       1  LIG1        0.0622
      9 H          -1.9035    1.3287    0.0016 H       1  LIG1        0.0654
     10 O          -0.5709   -1.1108    0.0005 O.3     1  LIG1       -0.5067
     11 H           0.0706   -1.8250    0.0006 H       1  LIG1        0.2921
     12 C           2.1897    3.5592   -0.0012 C.3     1  LIG1       -0.0231
     13 H           1.6260    4.3160    0.5031 H       1  LIG1        0.0316
     14 H           2.3738    3.8644   -1.0102 H       1  LIG1        0.0316
     15 H           3.1221    3.4135    0.5030 H       0  HOH0        0.2528
     16 C           4.2212    2.3851    0.0002 C.ar    1  LIG1       -0.0096
     17 C           5.6264    2.2916    0.0016 C.ar    1  LIG1       -0.0532
     18 C           3.4843    1.1831   -0.0005 C.ar    1  LIG1       -0.0095
     19 C           6.2715    1.0569    0.0017 C.ar    1  LIG1       -0.0582
     20 H           6.2143    3.2067    0.0024 H       1  LIG1        0.0624
     21 C           4.1278   -0.0498   -0.0004 C.ar    1  LIG1       -0.0505
     22 C           5.5247   -0.1219    0.0006 C.ar    1  LIG1       -0.0498
     23 H           3.5374   -0.9625   -0.0009 H       1  LIG1        0.0626
     24 H           7.5706    1.0074    0.0029 H       1  LIG1        0.0620
     25 O           3.6766    3.5656   -0.0001 O.3     2  HOH2       -0.2528
     26 H           2.7207    3.4775   -0.0002 H       3  UNK3        0.0000
     27 C           6.1209   -1.2775    0.0008 C.3     1  LIG1       -0.0397
     28 H           7.0608   -1.1938    0.5053 H       1  LIG1        0.0278
     29 H           6.2846   -1.5946   -1.0080 H       1  LIG1        0.0278
     30 H           5.5080   -1.9949    0.5052 H       1  LIG1        0.0278
@<TRIPOS>BOND
     1    14    12    1
     2    29    27    1
     3    12     7    1
     4    12    13    1
     5    23    21    1
     6     7     4   ar
     7     7     6   ar
     8    18    21   ar
     9    18     4    1
    10    18    16   ar
    11    21    22   ar
    12     4     2   ar
    13     6     8    1
    14     6     3   ar
    15    25    15    1
    16    16    17   ar
    17     1     3   ar
    18     1     2   ar
    19     1    10    1
    20     3     9    1
    21     2     5    1
    22    10    11    1
    23    22    27    1
    24    22    19   ar
    25    27    30    1
    26    27    28    1
    27    17    19   ar
    28    17    20    1
    29    19    24    1
