@<TRIPOS>MOLECULE
mol_data/noopt/geoms/mol2/4fi4fi4fi-4fi.out
 58 58 0 0 0
SMALL
GASTEIGER

@<TRIPOS>ATOM
      1 C           0.0509    0.0309    0.0002 C.ar    1  LIG1        0.1175
      2 C           1.4592    0.0309    0.0002 C.ar    1  LIG1       -0.0121
      3 C          -0.6045    1.2792    0.0002 C.ar    1  LIG1       -0.0199
      4 C           2.1849    1.2200   -0.0004 C.ar    1  LIG1       -0.0080
      5 H           1.9850   -0.9213    0.0004 H       1  LIG1        0.0660
      6 C           0.1195    2.4666   -0.0004 C.ar    1  LIG1       -0.0548
      7 C           1.5181    2.4458   -0.0008 C.ar    1  LIG1       -0.0424
      8 H          -0.4090    3.4165   -0.0003 H       1  LIG1        0.0622
      9 H          -1.9035    1.3287    0.0016 H       1  LIG1        0.0654
     10 O          -0.5709   -1.1108    0.0005 O.3     1  LIG1       -0.5067
     11 H           0.0706   -1.8250    0.0006 H       1  LIG1        0.2921
     12 C           2.1897    3.5592   -0.0012 C.3     1  LIG1       -0.0391
     13 H           1.6260    4.3160    0.5031 H       1  LIG1        0.0278
     14 H           2.3738    3.8644   -1.0102 H       1  LIG1        0.0278
     15 H           3.1221    3.4135    0.5030 H       1  LIG1        0.0278
     16 C           4.1518   -0.0588    0.0002 C.ar    1  LIG1        0.1251
     17 C           5.5600   -0.0451    0.0016 C.ar    1  LIG1       -0.0116
     18 C           3.4843    1.1831   -0.0005 C.ar    1  LIG1        0.0242
     19 C           6.2742    1.1510    0.0017 C.ar    1  LIG1       -0.0106
     20 H           6.0950   -0.9922    0.0024 H       1  LIG1        0.0660
     21 C           4.1968    2.3775   -0.0004 C.ar    1  LIG1       -0.0468
     22 C           5.5955    2.3702    0.0006 C.ar    1  LIG1       -0.0385
     23 H           3.6591    3.3222   -0.0009 H       1  LIG1        0.0628
     24 O           3.5411   -1.2065   -0.0001 O.3     1  LIG1       -0.5061
     25 H           4.1895   -1.9144   -0.0001 H       1  LIG1        0.2922
     26 C           6.2563    3.4901    0.0008 C.3     1  LIG1       -0.0231
     27 H           5.6851    4.2412    0.5053 H       1  LIG1        0.0316
     28 H           6.4376    3.7975   -1.0080 H       1  LIG1        0.0316
     29 H           7.1900    3.3532    0.5052 H       0  HOH0        0.2528
     30 C           8.2991    2.3358    0.0043 C.ar    1  LIG1       -0.0090
     31 C           9.7051    2.2559    0.0071 C.ar    1  LIG1       -0.0454
     32 C           7.5739    1.1267    0.0029 C.ar    1  LIG1       -0.0095
     33 C          10.3621    1.0275    0.0079 C.ar    1  LIG1       -0.0135
     34 H          10.2841    3.1767    0.0084 H       1  LIG1        0.0630
     35 C           8.2293   -0.0999    0.0037 C.ar    1  LIG1       -0.0497
     36 C           9.6269   -0.1585    0.0061 C.ar    1  LIG1       -0.0387
     37 H           7.6478   -1.0183    0.0026 H       1  LIG1        0.0627
     38 O           7.7431    3.5109    0.0034 O.3     2  HOH2       -0.2528
     39 H           6.7880    3.4135    0.0032 H       3  UNK3        0.0000
     40 C          10.2342   -1.3082    0.0069 C.3     1  LIG1       -0.0231
     41 H          11.1732   -1.2153    0.5116 H       0  HOH0        0.2052
     42 H          10.4012   -1.6242   -1.0017 H       1  LIG1        0.0316
     43 H           9.6281   -2.0314    0.5115 H       1  LIG1        0.0316
     44 C          12.3290   -0.2513    0.0125 C.ar    1  LIG1       -0.0096
     45 C          13.7373   -0.2376    0.0167 C.ar    1  LIG1       -0.0532
     46 C          11.6616    0.9906    0.0104 C.ar    1  LIG1       -0.0096
     47 C          14.4514    0.9585    0.0181 C.ar    1  LIG1       -0.0582
     48 H          14.2723   -1.1847    0.0186 H       1  LIG1        0.0624
     49 C          12.3740    2.1850    0.0118 C.ar    1  LIG1       -0.0505
     50 C          13.7727    2.1777    0.0156 C.ar    1  LIG1       -0.0498
     51 H          11.8363    3.1297    0.0102 H       1  LIG1        0.0626
     52 H          15.7512    0.9342    0.0219 H       1  LIG1        0.0620
     53 O          11.7184   -1.3990    0.0110 O.3     4  HOH4       -0.4105
     54 H          12.3668   -2.1069    0.0107 H       0  HOH0        0.2052
     55 C          14.4335    3.2976    0.0171 C.3     1  LIG1       -0.0397
     56 H          13.8621    4.0483    0.5219 H       1  LIG1        0.0278
     57 H          14.6153    3.6058   -0.9914 H       1  LIG1        0.0278
     58 H          15.3669    3.1603    0.5219 H       1  LIG1        0.0278
@<TRIPOS>BOND
     1    14    12    1
     2    28    26    1
     3    42    40    1
     4    57    55    1
     5    12     7    1
     6    12    15    1
     7    12    13    1
     8    23    21    1
     9     7     4   ar
    10     7     6   ar
    11    18    21   ar
    12    18     4    1
    13    18    16   ar
    14    21    22   ar
    15     4     2   ar
    16     6     8    1
    17     6     3   ar
    18    25    24    1
    19    24    16    1
    20     1     3   ar
    21     1     2   ar
    22     1    10    1
    23     3     9    1
    24     2     5    1
    25    16    17   ar
    26    10    11    1
    27    22    26    1
    28    22    19   ar
    29    26    27    1
    30    17    19   ar
    31    17    20    1
    32    19    32    1
    33    37    35    1
    34    32    35   ar
    35    32    30   ar
    36    38    29    1
    37    35    36   ar
    38    30    31   ar
    39    36    40    1
    40    36    33   ar
    41    40    43    1
    42    31    33   ar
    43    31    34    1
    44    33    46    1
    45    51    49    1
    46    46    49   ar
    47    46    44   ar
    48    54    53    1
    49    53    41    1
    50    49    50   ar
    51    44    45   ar
    52    50    55    1
    53    50    47   ar
    54    45    47   ar
    55    45    48    1
    56    55    58    1
    57    55    56    1
    58    47    52    1
