@<TRIPOS>MOLECULE
mol_data/noopt/geoms/mol2/4fi4fi-4fi-4fi.out
 58 58 0 0 0
SMALL
GASTEIGER

@<TRIPOS>ATOM
      1 C           0.0509    0.0309    0.0002 C.ar    1  LIG1        0.1175
      2 C           1.4592    0.0309    0.0002 C.ar    1  LIG1       -0.0122
      3 C          -0.6045    1.2792    0.0002 C.ar    1  LIG1       -0.0199
      4 C           2.1849    1.2200   -0.0004 C.ar    1  LIG1       -0.0107
      5 H           1.9850   -0.9213    0.0004 H       1  LIG1        0.0660
      6 C           0.1195    2.4666   -0.0004 C.ar    1  LIG1       -0.0545
      7 C           1.5181    2.4458   -0.0008 C.ar    1  LIG1       -0.0391
      8 H          -0.4090    3.4165   -0.0003 H       1  LIG1        0.0622
      9 H          -1.9035    1.3287    0.0016 H       1  LIG1        0.0654
     10 O          -0.5709   -1.1108    0.0005 O.3     1  LIG1       -0.5067
     11 H           0.0706   -1.8250    0.0006 H       1  LIG1        0.2921
     12 C           2.1897    3.5592   -0.0012 C.3     1  LIG1       -0.0231
     13 H           1.6260    4.3160    0.5031 H       1  LIG1        0.0316
     14 H           2.3738    3.8644   -1.0102 H       1  LIG1        0.0316
     15 H           3.1221    3.4135    0.5030 H       0  HOH0        0.2528
     16 C           4.2212    2.3851    0.0002 C.ar    1  LIG1       -0.0090
     17 C           5.6264    2.2916    0.0016 C.ar    1  LIG1       -0.0453
     18 C           3.4843    1.1831   -0.0005 C.ar    1  LIG1       -0.0095
     19 C           6.2715    1.0569    0.0017 C.ar    1  LIG1       -0.0109
     20 H           6.2143    3.2067    0.0024 H       1  LIG1        0.0630
     21 C           4.1278   -0.0498   -0.0004 C.ar    1  LIG1       -0.0499
     22 C           5.5247   -0.1219    0.0006 C.ar    1  LIG1       -0.0420
     23 H           3.5374   -0.9625   -0.0009 H       1  LIG1        0.0627
     24 O           3.6766    3.5656   -0.0001 O.3     2  HOH2       -0.2528
     25 H           2.7207    3.4775   -0.0002 H       3  UNK3        0.0000
     26 C           6.1209   -1.2775    0.0008 C.3     1  LIG1       -0.0391
     27 H           7.0608   -1.1938    0.5053 H       1  LIG1        0.0278
     28 H           6.2846   -1.5946   -1.0080 H       1  LIG1        0.0278
     29 H           5.5080   -1.9949    0.5052 H       1  LIG1        0.0278
     30 C           8.3190    2.2022    0.0043 C.ar    1  LIG1        0.1251
     31 C           9.7232    2.0950    0.0071 C.ar    1  LIG1       -0.0116
     32 C           7.5705    1.0074    0.0029 C.ar    1  LIG1        0.0241
     33 C          10.3563    0.8541    0.0079 C.ar    1  LIG1       -0.0106
     34 H          10.3199    3.0044    0.0084 H       1  LIG1        0.0660
     35 C           8.2020   -0.2317    0.0037 C.ar    1  LIG1       -0.0468
     36 C           9.5982   -0.3174    0.0061 C.ar    1  LIG1       -0.0385
     37 H           7.6028   -1.1386    0.0026 H       1  LIG1        0.0628
     38 O           7.7859    3.3879    0.0034 O.3     1  LIG1       -0.5061
     39 H           6.8292    3.3091    0.0032 H       1  LIG1        0.2922
     40 C          10.1831   -1.4787    0.0069 C.3     1  LIG1       -0.0231
     41 H          11.1237   -1.4039    0.5116 H       0  HOH0        0.2052
     42 H          10.3439   -1.7978   -1.0017 H       1  LIG1        0.0316
     43 H           9.5631   -2.1899    0.5115 H       1  LIG1        0.0316
     44 C          12.2980   -0.4626    0.0125 C.ar    1  LIG1       -0.0096
     45 C          13.7062   -0.4762    0.0167 C.ar    1  LIG1       -0.0532
     46 C          11.6548    0.7920    0.0104 C.ar    1  LIG1       -0.0095
     47 C          14.4434    0.7058    0.0181 C.ar    1  LIG1       -0.0582
     48 H          14.2228   -1.4335    0.0186 H       1  LIG1        0.0624
     49 C          12.3902    1.9724    0.0118 C.ar    1  LIG1       -0.0505
     50 C          13.7886    1.9380    0.0156 C.ar    1  LIG1       -0.0498
     51 H          11.8710    2.9273    0.0102 H       1  LIG1        0.0626
     52 H          15.7425    0.6563    0.0219 H       1  LIG1        0.0620
     53 O          11.6652   -1.5982    0.0110 O.3     4  HOH4       -0.4105
     54 H          12.2998   -2.3186    0.0107 H       0  HOH0        0.2052
     55 C          14.4710    3.0448    0.0171 C.3     1  LIG1       -0.0397
     56 H          13.9142    3.8065    0.5219 H       1  LIG1        0.0278
     57 H          14.6587    3.3495   -0.9914 H       1  LIG1        0.0278
     58 H          15.4015    2.8894    0.5219 H       1  LIG1        0.0278
@<TRIPOS>BOND
     1    14    12    1
     2    28    26    1
     3    42    40    1
     4    57    55    1
     5    12     7    1
     6    12    13    1
     7    23    21    1
     8     7     4   ar
     9     7     6   ar
    10    18    21   ar
    11    18     4    1
    12    18    16   ar
    13    21    22   ar
    14     4     2   ar
    15     6     8    1
    16     6     3   ar
    17    24    15    1
    18    16    17   ar
    19     1     3   ar
    20     1     2   ar
    21     1    10    1
    22     3     9    1
    23     2     5    1
    24    10    11    1
    25    22    26    1
    26    22    19   ar
    27    26    29    1
    28    26    27    1
    29    17    19   ar
    30    17    20    1
    31    19    32    1
    32    37    35    1
    33    32    35   ar
    34    32    30   ar
    35    39    38    1
    36    38    30    1
    37    35    36   ar
    38    30    31   ar
    39    36    40    1
    40    36    33   ar
    41    40    43    1
    42    31    33   ar
    43    31    34    1
    44    33    46    1
    45    51    49    1
    46    46    49   ar
    47    46    44   ar
    48    54    53    1
    49    53    41    1
    50    49    50   ar
    51    44    45   ar
    52    50    55    1
    53    50    47   ar
    54    45    47   ar
    55    45    48    1
    56    55    58    1
    57    55    56    1
    58    47    52    1
