@<TRIPOS>MOLECULE
mol_data/noopt/geoms/mol2/4fi4fi4fi.out
 44 46 0 0 0
SMALL
GASTEIGER

@<TRIPOS>ATOM
      1 C           0.0509    0.0309    0.0002 C.ar    1  LIG1        0.1175
      2 C           1.4592    0.0309    0.0002 C.ar    1  LIG1       -0.0121
      3 C          -0.6045    1.2792    0.0002 C.ar    1  LIG1       -0.0199
      4 C           2.1849    1.2200   -0.0004 C.ar    1  LIG1       -0.0080
      5 H           1.9850   -0.9213    0.0004 H       1  LIG1        0.0660
      6 C           0.1195    2.4666   -0.0004 C.ar    1  LIG1       -0.0548
      7 C           1.5181    2.4458   -0.0008 C.ar    1  LIG1       -0.0424
      8 H          -0.4090    3.4165   -0.0003 H       1  LIG1        0.0622
      9 H          -1.9035    1.3287    0.0016 H       1  LIG1        0.0654
     10 O          -0.5709   -1.1108    0.0005 O.3     1  LIG1       -0.5067
     11 H           0.0706   -1.8250    0.0006 H       1  LIG1        0.2921
     12 C           2.1897    3.5592   -0.0012 C.3     1  LIG1       -0.0391
     13 H           1.6260    4.3160    0.5031 H       1  LIG1        0.0278
     14 H           2.3738    3.8644   -1.0102 H       1  LIG1        0.0278
     15 H           3.1221    3.4135    0.5030 H       1  LIG1        0.0278
     16 C           4.1518   -0.0588    0.0002 C.ar    1  LIG1        0.1251
     17 C           5.5600   -0.0451    0.0016 C.ar    1  LIG1       -0.0115
     18 C           3.4843    1.1831   -0.0005 C.ar    1  LIG1        0.0242
     19 C           6.2742    1.1510    0.0017 C.ar    1  LIG1       -0.0080
     20 H           6.0950   -0.9922    0.0024 H       1  LIG1        0.0660
     21 C           4.1968    2.3775   -0.0004 C.ar    1  LIG1       -0.0470
     22 C           5.5955    2.3702    0.0006 C.ar    1  LIG1       -0.0418
     23 H           3.6591    3.3222   -0.0009 H       1  LIG1        0.0628
     24 O           3.5411   -1.2065   -0.0001 O.3     1  LIG1       -0.5061
     25 H           4.1895   -1.9144   -0.0001 H       1  LIG1        0.2922
     26 C           6.2563    3.4901    0.0008 C.3     1  LIG1       -0.0391
     27 H           5.6851    4.2412    0.5053 H       1  LIG1        0.0278
     28 H           6.4376    3.7975   -1.0080 H       1  LIG1        0.0278
     29 H           7.1900    3.3532    0.5052 H       1  LIG1        0.0278
     30 C           8.2534   -0.1087    0.0043 C.ar    1  LIG1        0.1246
     31 C           9.6614   -0.0814    0.0071 C.ar    1  LIG1       -0.0193
     32 C           7.5739    1.1267    0.0029 C.ar    1  LIG1        0.0242
     33 C          10.3639    1.1216    0.0079 C.ar    1  LIG1       -0.0554
     34 H          10.2056   -1.0232    0.0084 H       1  LIG1        0.0654
     35 C           8.2747    2.3279    0.0036 C.ar    1  LIG1       -0.0476
     36 C           9.6734    2.3342    0.0060 C.ar    1  LIG1       -0.0496
     37 H           7.7279    3.2674    0.0026 H       1  LIG1        0.0627
     38 H          11.6639    1.1099    0.0104 H       1  LIG1        0.0621
     39 O           7.6539   -1.2622    0.0034 O.3     1  LIG1       -0.5062
     40 H           8.3091   -1.9639    0.0032 H       1  LIG1        0.2922
     41 C          10.3234    3.4605    0.0069 C.3     1  LIG1       -0.0397
     42 H           9.7448    4.2058    0.5116 H       1  LIG1        0.0278
     43 H          10.5019    3.7700   -1.0017 H       1  LIG1        0.0278
     44 H          11.2582    3.3324    0.5115 H       1  LIG1        0.0278
@<TRIPOS>BOND
     1    14    12    1
     2    28    26    1
     3    43    41    1
     4    12     7    1
     5    12    15    1
     6    12    13    1
     7    23    21    1
     8     7     4   ar
     9     7     6   ar
    10    18    21   ar
    11    18     4    1
    12    18    16   ar
    13    21    22   ar
    14     4     2   ar
    15     6     8    1
    16     6     3   ar
    17    25    24    1
    18    24    16    1
    19     1     2   ar
    20     1     3   ar
    21     1    10    1
    22     2     5    1
    23     3     9    1
    24    16    17   ar
    25    10    11    1
    26    22    26    1
    27    22    19   ar
    28    26    29    1
    29    26    27    1
    30    17    19   ar
    31    17    20    1
    32    19    32    1
    33    37    35    1
    34    32    35   ar
    35    32    30   ar
    36    40    39    1
    37    39    30    1
    38    35    36   ar
    39    30    31   ar
    40    36    41    1
    41    36    33   ar
    42    41    44    1
    43    41    42    1
    44    31    33   ar
    45    31    34    1
    46    33    38    1
