@<TRIPOS>MOLECULE
mol_data/noopt/geoms/mol2/4fi4fi4fi4fi.out
 58 61 0 0 0
SMALL
GASTEIGER

@<TRIPOS>ATOM
      1 C           0.0509    0.0309    0.0002 C.ar    1  LIG1        0.1175
      2 C           1.4592    0.0309    0.0002 C.ar    1  LIG1       -0.0121
      3 C          -0.6045    1.2792    0.0002 C.ar    1  LIG1       -0.0199
      4 C           2.1849    1.2200   -0.0004 C.ar    1  LIG1       -0.0080
      5 H           1.9850   -0.9213    0.0004 H       1  LIG1        0.0660
      6 C           0.1195    2.4666   -0.0004 C.ar    1  LIG1       -0.0548
      7 C           1.5181    2.4458   -0.0008 C.ar    1  LIG1       -0.0424
      8 H          -0.4090    3.4165   -0.0003 H       1  LIG1        0.0622
      9 H          -1.9035    1.3287    0.0016 H       1  LIG1        0.0654
     10 O          -0.5709   -1.1108    0.0005 O.3     1  LIG1       -0.5067
     11 H           0.0706   -1.8250    0.0006 H       1  LIG1        0.2921
     12 C           2.1897    3.5592   -0.0012 C.3     1  LIG1       -0.0391
     13 H           1.6260    4.3160    0.5031 H       1  LIG1        0.0278
     14 H           2.3738    3.8644   -1.0102 H       1  LIG1        0.0278
     15 H           3.1221    3.4135    0.5030 H       1  LIG1        0.0278
     16 C           4.1518   -0.0588    0.0002 C.ar    1  LIG1        0.1251
     17 C           5.5600   -0.0451    0.0016 C.ar    1  LIG1       -0.0115
     18 C           3.4843    1.1831   -0.0005 C.ar    1  LIG1        0.0242
     19 C           6.2742    1.1510    0.0017 C.ar    1  LIG1       -0.0080
     20 H           6.0950   -0.9922    0.0024 H       1  LIG1        0.0660
     21 C           4.1968    2.3775   -0.0004 C.ar    1  LIG1       -0.0470
     22 C           5.5955    2.3702    0.0006 C.ar    1  LIG1       -0.0418
     23 H           3.6591    3.3222   -0.0009 H       1  LIG1        0.0628
     24 O           3.5411   -1.2065   -0.0001 O.3     1  LIG1       -0.5061
     25 H           4.1895   -1.9144   -0.0001 H       1  LIG1        0.2922
     26 C           6.2563    3.4901    0.0008 C.3     1  LIG1       -0.0391
     27 H           5.6851    4.2412    0.5053 H       1  LIG1        0.0278
     28 H           6.4376    3.7975   -1.0080 H       1  LIG1        0.0278
     29 H           7.1900    3.3532    0.5052 H       1  LIG1        0.0278
     30 C           8.2534   -0.1087    0.0043 C.ar    1  LIG1        0.1251
     31 C           9.6614   -0.0814    0.0071 C.ar    1  LIG1       -0.0115
     32 C           7.5739    1.1267    0.0029 C.ar    1  LIG1        0.0242
     33 C          10.3639    1.1216    0.0079 C.ar    1  LIG1       -0.0080
     34 H          10.2056   -1.0232    0.0084 H       1  LIG1        0.0660
     35 C           8.2747    2.3279    0.0036 C.ar    1  LIG1       -0.0470
     36 C           9.6734    2.3342    0.0060 C.ar    1  LIG1       -0.0418
     37 H           7.7279    3.2674    0.0026 H       1  LIG1        0.0628
     38 O           7.6539   -1.2622    0.0034 O.3     1  LIG1       -0.5061
     39 H           8.3091   -1.9639    0.0032 H       1  LIG1        0.2922
     40 C          10.3234    3.4605    0.0069 C.3     1  LIG1       -0.0391
     41 H           9.7448    4.2058    0.5116 H       1  LIG1        0.0278
     42 H          10.5019    3.7700   -1.0017 H       1  LIG1        0.0278
     43 H          11.2582    3.3324    0.5115 H       1  LIG1        0.0278
     44 C          12.3552   -0.1188    0.0125 C.ar    1  LIG1        0.1246
     45 C          13.7629   -0.0778    0.0167 C.ar    1  LIG1       -0.0193
     46 C          11.6638    1.1099    0.0104 C.ar    1  LIG1        0.0242
     47 C          14.4537    1.1319    0.0181 C.ar    1  LIG1       -0.0554
     48 H          14.3162   -1.0143    0.0186 H       1  LIG1        0.0654
     49 C          12.3529    2.3179    0.0118 C.ar    1  LIG1       -0.0476
     50 C          13.7515    2.3378    0.0156 C.ar    1  LIG1       -0.0496
     51 H          11.7970    3.2520    0.0102 H       1  LIG1        0.0627
     52 H          15.7537    1.1328    0.0219 H       1  LIG1        0.0621
     53 O          11.7669   -1.2781    0.0110 O.3     1  LIG1       -0.5062
     54 H          12.4290   -1.9733    0.0107 H       1  LIG1        0.2922
     55 C          14.3905    3.4703    0.0171 C.3     1  LIG1       -0.0397
     56 H          13.8046    4.2097    0.5219 H       1  LIG1        0.0278
     57 H          14.5663    3.7820   -0.9914 H       1  LIG1        0.0278
     58 H          15.3264    3.3511    0.5219 H       1  LIG1        0.0278
@<TRIPOS>BOND
     1    14    12    1
     2    28    26    1
     3    42    40    1
     4    57    55    1
     5    12     7    1
     6    12    15    1
     7    12    13    1
     8    23    21    1
     9     7     4   ar
    10     7     6   ar
    11    18    21   ar
    12    18     4    1
    13    18    16   ar
    14    21    22   ar
    15     4     2   ar
    16     6     8    1
    17     6     3   ar
    18    25    24    1
    19    24    16    1
    20     1     3   ar
    21     1     2   ar
    22     1    10    1
    23     3     9    1
    24     2     5    1
    25    16    17   ar
    26    10    11    1
    27    22    26    1
    28    22    19   ar
    29    26    29    1
    30    26    27    1
    31    17    19   ar
    32    17    20    1
    33    19    32    1
    34    37    35    1
    35    32    35   ar
    36    32    30   ar
    37    39    38    1
    38    38    30    1
    39    35    36   ar
    40    30    31   ar
    41    36    40    1
    42    36    33   ar
    43    40    43    1
    44    40    41    1
    45    31    33   ar
    46    31    34    1
    47    33    46    1
    48    51    49    1
    49    46    49   ar
    50    46    44   ar
    51    54    53    1
    52    53    44    1
    53    49    50   ar
    54    44    45   ar
    55    50    55    1
    56    50    47   ar
    57    45    47   ar
    58    45    48    1
    59    55    58    1
    60    55    56    1
    61    47    52    1
