@<TRIPOS>MOLECULE
mol_data/noopt/geoms/mol2/4fi4fi-4fi.out
 44 43 0 0 0
SMALL
GASTEIGER

@<TRIPOS>ATOM
      1 C           0.0509    0.0309    0.0002 C.ar    1  LIG1        0.1175
      2 C           1.4592    0.0309    0.0002 C.ar    1  LIG1       -0.0122
      3 C          -0.6045    1.2792    0.0002 C.ar    1  LIG1       -0.0199
      4 C           2.1849    1.2200   -0.0004 C.ar    1  LIG1       -0.0107
      5 H           1.9850   -0.9213    0.0004 H       1  LIG1        0.0660
      6 C           0.1195    2.4666   -0.0004 C.ar    1  LIG1       -0.0545
      7 C           1.5181    2.4458   -0.0008 C.ar    1  LIG1       -0.0391
      8 H          -0.4090    3.4165   -0.0003 H       1  LIG1        0.0622
      9 H          -1.9035    1.3287    0.0016 H       1  LIG1        0.0654
     10 O          -0.5709   -1.1108    0.0005 O.3     1  LIG1       -0.5067
     11 H           0.0706   -1.8250    0.0006 H       1  LIG1        0.2921
     12 C           2.1897    3.5592   -0.0012 C.3     1  LIG1       -0.0231
     13 H           1.6260    4.3160    0.5031 H       1  LIG1        0.0316
     14 H           2.3738    3.8644   -1.0102 H       1  LIG1        0.0316
     15 H           3.1221    3.4135    0.5030 H       0  HOH0        0.2528
     16 C           4.2212    2.3851    0.0002 C.ar    1  LIG1       -0.0090
     17 C           5.6264    2.2916    0.0016 C.ar    1  LIG1       -0.0454
     18 C           3.4843    1.1831   -0.0005 C.ar    1  LIG1       -0.0095
     19 C           6.2715    1.0569    0.0017 C.ar    1  LIG1       -0.0135
     20 H           6.2143    3.2067    0.0024 H       1  LIG1        0.0630
     21 C           4.1278   -0.0498   -0.0004 C.ar    1  LIG1       -0.0497
     22 C           5.5247   -0.1219    0.0006 C.ar    1  LIG1       -0.0387
     23 H           3.5374   -0.9625   -0.0009 H       1  LIG1        0.0627
     24 O           3.6766    3.5656   -0.0001 O.3     2  HOH2       -0.2528
     25 H           2.7207    3.4775   -0.0002 H       3  UNK3        0.0000
     26 C           6.1209   -1.2775    0.0008 C.3     1  LIG1       -0.0231
     27 H           7.0608   -1.1938    0.5053 H       0  HOH0        0.2052
     28 H           6.2846   -1.5946   -1.0080 H       1  LIG1        0.0316
     29 H           5.5080   -1.9949    0.5052 H       1  LIG1        0.0316
     30 C           8.2259   -0.2409    0.0043 C.ar    1  LIG1       -0.0096
     31 C           9.6342   -0.2409    0.0071 C.ar    1  LIG1       -0.0532
     32 C           7.5705    1.0074    0.0029 C.ar    1  LIG1       -0.0096
     33 C          10.3599    0.9482    0.0079 C.ar    1  LIG1       -0.0582
     34 H          10.1600   -1.1931    0.0084 H       1  LIG1        0.0624
     35 C           8.2945    2.1948    0.0036 C.ar    1  LIG1       -0.0505
     36 C           9.6931    2.1740    0.0060 C.ar    1  LIG1       -0.0498
     37 H           7.7660    3.1447    0.0026 H       1  LIG1        0.0626
     38 H          11.6594    0.9113    0.0104 H       1  LIG1        0.0620
     39 O           7.6041   -1.3826    0.0034 O.3     4  HOH4       -0.4105
     40 H           8.2456   -2.0968    0.0032 H       0  HOH0        0.2052
     41 C          10.3647    3.2874    0.0069 C.3     1  LIG1       -0.0397
     42 H           9.8007    4.0438    0.5116 H       1  LIG1        0.0278
     43 H          10.5493    3.5934   -1.0017 H       1  LIG1        0.0278
     44 H          11.2969    3.1412    0.5115 H       1  LIG1        0.0278
@<TRIPOS>BOND
     1    14    12    1
     2    28    26    1
     3    43    41    1
     4    12     7    1
     5    12    13    1
     6    23    21    1
     7     7     4   ar
     8     7     6   ar
     9    18    21   ar
    10    18     4    1
    11    18    16   ar
    12    21    22   ar
    13     4     2   ar
    14     6     8    1
    15     6     3   ar
    16    24    15    1
    17    16    17   ar
    18     1     2   ar
    19     1     3   ar
    20     1    10    1
    21     2     5    1
    22     3     9    1
    23    10    11    1
    24    22    26    1
    25    22    19   ar
    26    26    29    1
    27    17    19   ar
    28    17    20    1
    29    19    32    1
    30    37    35    1
    31    32    35   ar
    32    32    30   ar
    33    40    39    1
    34    39    27    1
    35    35    36   ar
    36    30    31   ar
    37    36    41    1
    38    36    33   ar
    39    41    44    1
    40    41    42    1
    41    31    33   ar
    42    31    34    1
    43    33    38    1
