@<TRIPOS>MOLECULE
mol_data/noopt/geoms/mol2/4fi4fi-4fi4fi-.out
 58 56 0 0 0
SMALL
GASTEIGER

@<TRIPOS>ATOM
      1 C           0.0509    0.0309    0.0002 C.ar    1  LIG1        0.1175
      2 C           1.4592    0.0309    0.0002 C.ar    1  LIG1       -0.0122
      3 C          -0.6045    1.2792    0.0002 C.ar    1  LIG1       -0.0199
      4 C           2.1849    1.2200   -0.0004 C.ar    1  LIG1       -0.0107
      5 H           1.9850   -0.9213    0.0004 H       1  LIG1        0.0660
      6 C           0.1195    2.4666   -0.0004 C.ar    1  LIG1       -0.0545
      7 C           1.5181    2.4458   -0.0008 C.ar    1  LIG1       -0.0391
      8 H          -0.4090    3.4165   -0.0003 H       1  LIG1        0.0622
      9 H          -1.9035    1.3287    0.0016 H       1  LIG1        0.0654
     10 O          -0.5709   -1.1108    0.0005 O.3     1  LIG1       -0.5067
     11 H           0.0706   -1.8250    0.0006 H       1  LIG1        0.2921
     12 C           2.1897    3.5592   -0.0012 C.3     1  LIG1       -0.0231
     13 H           1.6260    4.3160    0.5031 H       1  LIG1        0.0316
     14 H           2.3738    3.8644   -1.0102 H       1  LIG1        0.0316
     15 H           3.1221    3.4135    0.5030 H       0  HOH0        0.2528
     16 C           4.2212    2.3851    0.0002 C.ar    1  LIG1       -0.0090
     17 C           5.6264    2.2916    0.0016 C.ar    1  LIG1       -0.0454
     18 C           3.4843    1.1831   -0.0005 C.ar    1  LIG1       -0.0095
     19 C           6.2715    1.0569    0.0017 C.ar    1  LIG1       -0.0135
     20 H           6.2143    3.2067    0.0024 H       1  LIG1        0.0630
     21 C           4.1278   -0.0498   -0.0004 C.ar    1  LIG1       -0.0497
     22 C           5.5247   -0.1219    0.0006 C.ar    1  LIG1       -0.0387
     23 H           3.5374   -0.9625   -0.0009 H       1  LIG1        0.0627
     24 O           3.6766    3.5656   -0.0001 O.3     2  HOH2       -0.2528
     25 H           2.7207    3.4775   -0.0002 H       3  UNK3        0.0000
     26 C           6.1209   -1.2775    0.0008 C.3     1  LIG1       -0.0231
     27 H           7.0608   -1.1938    0.5053 H       0  HOH0        0.2052
     28 H           6.2846   -1.5946   -1.0080 H       1  LIG1        0.0316
     29 H           5.5080   -1.9949    0.5052 H       1  LIG1        0.0316
     30 C           8.2259   -0.2409    0.0043 C.ar    1  LIG1       -0.0090
     31 C           9.6342   -0.2409    0.0071 C.ar    1  LIG1       -0.0454
     32 C           7.5705    1.0074    0.0029 C.ar    1  LIG1       -0.0096
     33 C          10.3599    0.9482    0.0079 C.ar    1  LIG1       -0.0135
     34 H          10.1600   -1.1931    0.0084 H       1  LIG1        0.0630
     35 C           8.2945    2.1948    0.0036 C.ar    1  LIG1       -0.0497
     36 C           9.6931    2.1740    0.0060 C.ar    1  LIG1       -0.0387
     37 H           7.7660    3.1447    0.0026 H       1  LIG1        0.0627
     38 O           7.6041   -1.3826    0.0034 O.3     4  HOH4       -0.4105
     39 H           8.2456   -2.0968    0.0032 H       0  HOH0        0.2052
     40 C          10.3647    3.2874    0.0069 C.3     1  LIG1       -0.0231
     41 H           9.8007    4.0438    0.5116 H       1  LIG1        0.0316
     42 H          10.5493    3.5934   -1.0017 H       1  LIG1        0.0316
     43 H          11.2969    3.1412    0.5115 H       0  HOH0        0.2528
     44 C          12.3962    2.1133    0.0125 C.ar    1  LIG1       -0.0096
     45 C          13.8014    2.0197    0.0167 C.ar    1  LIG1       -0.0532
     46 C          11.6593    0.9113    0.0104 C.ar    1  LIG1       -0.0096
     47 C          14.4465    0.7851    0.0181 C.ar    1  LIG1       -0.0582
     48 H          14.3892    2.9349    0.0186 H       1  LIG1        0.0624
     49 C          12.3028   -0.3216    0.0118 C.ar    1  LIG1       -0.0505
     50 C          13.6997   -0.3937    0.0156 C.ar    1  LIG1       -0.0498
     51 H          11.7124   -1.2343    0.0102 H       1  LIG1        0.0626
     52 H          15.7455    0.7356    0.0219 H       1  LIG1        0.0620
     53 O          11.8516    3.2938    0.0110 O.3     5  HOH5       -0.2528
     54 H          10.8957    3.2057    0.0107 H       6  UNK6        0.0000
     55 C          14.2959   -1.5493    0.0171 C.3     1  LIG1       -0.0397
     56 H          15.2356   -1.4652    0.5219 H       1  LIG1        0.0278
     57 H          14.4600   -1.8673   -0.9913 H       1  LIG1        0.0278
     58 H          13.6827   -2.2663    0.5219 H       1  LIG1        0.0278
@<TRIPOS>BOND
     1    14    12    1
     2    28    26    1
     3    42    40    1
     4    57    55    1
     5    12     7    1
     6    12    13    1
     7    23    21    1
     8     7     4   ar
     9     7     6   ar
    10    18    21   ar
    11    18     4    1
    12    18    16   ar
    13    21    22   ar
    14     4     2   ar
    15     6     8    1
    16     6     3   ar
    17    24    15    1
    18    16    17   ar
    19     1     3   ar
    20     1     2   ar
    21     1    10    1
    22     3     9    1
    23     2     5    1
    24    10    11    1
    25    22    26    1
    26    22    19   ar
    27    26    29    1
    28    17    19   ar
    29    17    20    1
    30    19    32    1
    31    37    35    1
    32    32    35   ar
    33    32    30   ar
    34    39    38    1
    35    38    27    1
    36    35    36   ar
    37    30    31   ar
    38    36    40    1
    39    36    33   ar
    40    40    41    1
    41    31    33   ar
    42    31    34    1
    43    33    46    1
    44    51    49    1
    45    46    49   ar
    46    46    44   ar
    47    53    43    1
    48    49    50   ar
    49    44    45   ar
    50    50    55    1
    51    50    47   ar
    52    45    47   ar
    53    45    48    1
    54    55    58    1
    55    55    56    1
    56    47    52    1
