@<TRIPOS>MOLECULE
mol_data/noopt/geoms/mol2/4fi6aa-12df6li.out
 50 53 0 0 0
SMALL
GASTEIGER

@<TRIPOS>ATOM
      1 C           0.0509    0.0309    0.0002 C.ar    1  LIG1        0.1175
      2 C           1.4592    0.0309    0.0002 C.ar    1  LIG1       -0.0122
      3 C          -0.6045    1.2792    0.0002 C.ar    1  LIG1       -0.0199
      4 C           2.1849    1.2200   -0.0004 C.ar    1  LIG1       -0.0101
      5 H           1.9850   -0.9213    0.0004 H       1  LIG1        0.0660
      6 C           0.1195    2.4666   -0.0004 C.ar    1  LIG1       -0.0548
      7 C           1.5181    2.4458   -0.0008 C.ar    1  LIG1       -0.0425
      8 H          -0.4090    3.4165   -0.0003 H       1  LIG1        0.0622
      9 H          -1.9035    1.3287    0.0016 H       1  LIG1        0.0654
     10 O          -0.5709   -1.1108    0.0005 O.3     1  LIG1       -0.5067
     11 H           0.0706   -1.8250    0.0006 H       1  LIG1        0.2921
     12 C           2.1897    3.5592   -0.0012 C.3     1  LIG1       -0.0391
     13 H           1.6260    4.3160    0.5031 H       1  LIG1        0.0278
     14 H           2.3738    3.8644   -1.0102 H       1  LIG1        0.0278
     15 H           3.1221    3.4135    0.5030 H       1  LIG1        0.0278
     16 C           4.2297    2.3762   -0.0216 C.ar    1  LIG1        0.0361
     17 C           3.4844    1.1831   -0.0005 C.ar    1  LIG1        0.0006
     18 C           4.1715   -0.0320    0.0205 C.ar    1  LIG1       -0.0505
     19 C           5.5674   -0.0147    0.0195 C.ar    1  LIG1       -0.0321
     20 C           6.2235    1.2297   -0.0026 C.ar    1  LIG1        0.1074
     21 N           5.5764    2.4113   -0.0228 N.ar    1  LIG1       -0.2512
     22 H           3.6233   -0.9846    0.0362 H       1  LIG1        0.0625
     23 H           3.6351    3.5321   -0.0414 H       1  LIG1        0.0836
     24 H           6.2531   -1.1189    0.0383 H       1  LIG1        0.0640
     25 C           7.5217    1.2976   -0.0044 C.ar    1  LIG1        0.1748
     26 C           8.5543    0.3828   -0.0057 C.ar    1  LIG1        0.1409
     27 C           9.7848    1.1462   -0.0074 C.ar    1  LIG1        0.1813
     28 C           9.4223    2.4775   -0.0071 C.ar    1  LIG1        0.1834
     29 O           8.0321    2.5965   -0.0053 O.2     1  LIG1       -0.4480
     30 N           8.3921   -2.0584   -0.0051 N.1     1  LIG1       -0.1906
     31 C           8.4681   -0.9143   -0.0054 C.1     1  LIG1        0.1067
     32 O          10.9855    0.6479   -0.0089 O.3     1  LIG1       -0.5023
     33 H          11.6283    1.3609   -0.0093 H       1  LIG1        0.2923
     34 C           9.3492    4.8254   -0.0083 C.ar    1  LIG1        0.2255
     35 C          10.0591    3.6108   -0.0080 C.ar    1  LIG1        0.0826
     36 C          11.4545    3.6542   -0.0083 C.ar    1  LIG1       -0.0415
     37 C          12.0882    4.8980   -0.0092 C.ar    1  LIG1       -0.0314
     38 C          11.2913    6.0576   -0.0097 C.ar    1  LIG1        0.0343
     39 N           9.9442    6.0341   -0.0092 N.ar    1  LIG1       -0.2205
     40 H          12.0432    2.7258   -0.0091 H       1  LIG1        0.0629
     41 H          11.8348    7.2385   -0.0104 H       1  LIG1        0.0833
     42 O           8.0492    4.8366   -0.0079 O.3     1  LIG1       -0.4792
     43 C           7.5835    6.1886   -0.0079 C.3     1  LIG1        0.0804
     44 H           6.5135    6.1973   -0.0077 H       1  LIG1        0.0660
     45 H           7.9443    6.6901    0.8658 H       1  LIG1        0.0660
     46 H           7.9441    6.6901   -0.8815 H       1  LIG1        0.0660
     47 C          13.3851    4.9918   -0.0098 C.3     1  LIG1       -0.0383
     48 H          13.6781    5.8888    0.4945 H       1  LIG1        0.0278
     49 H          13.7404    5.0175   -1.0188 H       1  LIG1        0.0278
     50 H          13.8040    4.1461    0.4945 H       1  LIG1        0.0278
@<TRIPOS>BOND
     1    49    47    1
     2    14    12    1
     3    46    43    1
     4    23    16    1
     5    21    16   ar
     6    21    20   ar
     7    16    17   ar
     8    41    38    1
     9    47    37    1
    10    47    50    1
    11    47    48    1
    12    38    37   ar
    13    38    39   ar
    14    33    32    1
    15    37    36   ar
    16    39    34   ar
    17    40    36    1
    18    32    27    1
    19    36    35   ar
    20    34    35   ar
    21    34    42    1
    22    35    28    1
    23    42    43    1
    24    43    44    1
    25    43    45    1
    26    27    28   ar
    27    27    26   ar
    28    28    29   ar
    29    26    31    1
    30    26    25   ar
    31    31    30    3
    32    29    25   ar
    33    25    20    1
    34    20    19   ar
    35    12     7    1
    36    12    15    1
    37    12    13    1
    38     7     6   ar
    39     7     4   ar
    40    17     4    1
    41    17    18   ar
    42     6     8    1
    43     6     3   ar
    44     4     2   ar
    45     1     3   ar
    46     1     2   ar
    47     1    10    1
    48     3     9    1
    49     2     5    1
    50    10    11    1
    51    19    18   ar
    52    19    24    1
    53    18    22    1
