@<TRIPOS>MOLECULE
mol_data/noopt/geoms/mol2/4fl.out
 17 17 0 0 0
SMALL
GASTEIGER

@<TRIPOS>ATOM
      1 C           0.0509    0.0309    0.0002 C.ar    1  LIG1        0.1171
      2 C           1.4592    0.0309    0.0002 C.ar    1  LIG1       -0.0167
      3 C          -0.6045    1.2792    0.0002 C.ar    1  LIG1       -0.0167
      4 C           2.1849    1.2200   -0.0004 C.ar    1  LIG1       -0.0165
      5 H           1.9850   -0.9213    0.0004 H       1  LIG1        0.0655
      6 C           0.1195    2.4666   -0.0004 C.ar    1  LIG1       -0.0165
      7 C           1.5181    2.4458   -0.0008 C.ar    1  LIG1        0.1203
      8 H          -0.4090    3.4165   -0.0003 H       1  LIG1        0.0655
      9 H           3.4844    1.1831   -0.0005 H       1  LIG1        0.0655
     10 H          -1.9035    1.3287    0.0016 H       1  LIG1        0.0655
     11 O          -0.5709   -1.1108    0.0005 O.3     1  LIG1       -0.5068
     12 H           0.0706   -1.8250    0.0006 H       1  LIG1        0.2921
     13 O           2.1896    3.5590   -0.0012 O.3     1  LIG1       -0.4951
     14 C           3.5904    3.2714   -0.0014 C.3     1  LIG1        0.0788
     15 H           4.1427    4.1879   -0.0019 H       1  LIG1        0.0660
     16 H           3.8386    2.7059    0.8724 H       1  LIG1        0.0660
     17 H           3.8381    2.7052   -0.8749 H       1  LIG1        0.0660
@<TRIPOS>BOND
     1    17    14    1
     2    15    14    1
     3    14    13    1
     4    14    16    1
     5    13     7    1
     6     7     6   ar
     7     7     4   ar
     8     9     4    1
     9     6     8    1
    10     6     3   ar
    11     4     2   ar
    12     1     3   ar
    13     1     2   ar
    14     1    11    1
    15     3    10    1
    16     2     5    1
    17    11    12    1
