@<TRIPOS>MOLECULE
mol_data/noopt/geoms/mol2/4fl12ai(10)13de(150)13id(210).out
 50 50 0 0 0
SMALL
GASTEIGER

@<TRIPOS>ATOM
      1 C           0.0509    0.0309    0.0002 C.ar    1  LIG1        0.1177
      2 C           1.4592    0.0309    0.0002 C.ar    1  LIG1       -0.0088
      3 C          -0.6045    1.2792    0.0002 C.ar    1  LIG1       -0.0165
      4 C           2.1849    1.2200   -0.0004 C.ar    1  LIG1        0.0328
      5 H           1.9850   -0.9213    0.0004 H       1  LIG1        0.0661
      6 C           0.1195    2.4666   -0.0004 C.ar    1  LIG1       -0.0109
      7 C           1.5181    2.4458   -0.0008 C.ar    1  LIG1        0.1869
      8 H          -0.4090    3.4165   -0.0003 H       1  LIG1        0.0657
      9 H          -1.9035    1.3287    0.0016 H       1  LIG1        0.0655
     10 O          -0.5709   -1.1108    0.0005 O.3     1  LIG1       -0.5067
     11 H           0.0706   -1.8250    0.0006 H       1  LIG1        0.2921
     12 O           2.1896    3.5590   -0.0012 O.3     1  LIG1       -0.2873
     13 C           3.5904    3.2714   -0.0014 C.3     1  LIG1        0.1689
     14 H           4.1427    4.1879   -0.0019 H       1  LIG1        0.0855
     15 H           3.8386    2.7059    0.8724 H       2  UNK2        0.0000
     16 H           3.8381    2.7052   -0.8749 H       1  LIG1        0.2105
     17 C           3.4844    1.1831   -0.0005 C.2     1  LIG1       -0.0060
     18 C           4.4402    0.1994    0.1471 C.2     1  LIG1       -0.0498
     19 C           5.7280    0.8531    0.0404 C.2     1  LIG1       -0.0401
     20 C           5.4735    2.1934   -0.1655 C.2     1  LIG1        0.0113
     21 O           4.0973    2.4218   -0.1947 O.3     1  LIG1       -0.3794
     22 H           4.2503   -1.0714    0.3443 H       1  LIG1        0.0627
     23 C           6.8851    0.2662    0.1259 C.3     1  LIG1       -0.0390
     24 H           7.5682    0.8993    0.6527 H       1  LIG1        0.0278
     25 H           7.2617    0.0752   -0.8573 H       1  LIG1        0.0278
     26 H           6.7777   -0.6590    0.6526 H       1  LIG1        0.0278
     27 C           6.1991    3.2589   -0.3332 C.ar    1  LIG1        0.0578
     28 C           5.9718    4.5477    0.0346 C.ar    1  LIG1        0.0361
     29 C           7.0971    5.3207   -0.3976 C.ar    1  LIG1        0.0606
     30 C           7.9634    4.4700   -1.0091 C.ar    1  LIG1        0.0798
     31 N           7.4173    3.2067   -0.9723 N.ar    1  LIG1       -0.3515
     32 H           7.8364    2.3870   -1.3470 H       1  LIG1        0.1660
     33 N           3.9994    5.3857    1.2151 N.2     1  LIG1       -0.1570
     34 C           4.9238    4.9930    0.6619 C.2     1  LIG1        0.0603
     35 C           7.2634    6.5999   -0.2365 C.1     1  LIG1       -0.0668
     36 C           7.4171    7.7819   -0.0876 C.1     1  LIG1       -0.1138
     37 H           7.5540    8.8348    0.0450 H       1  LIG1        0.1232
     38 C           9.1182    4.6953   -1.5620 C.ar    1  LIG1        0.0683
     39 C           9.5242    5.7056   -2.3759 C.ar    1  LIG1       -0.0064
     40 C          10.8989    5.4682   -2.6991 C.ar    1  LIG1        0.0725
     41 C          11.2730    4.3242   -2.0671 C.ar    1  LIG1        0.0199
     42 N          10.1856    3.8475   -1.3702 N.ar    1  LIG1       -0.3581
     43 H          10.1735    3.0225   -0.8159 H       1  LIG1        0.1654
     44 H          12.4150    3.7032   -2.0526 H       1  LIG1        0.0820
     45 C           8.7951    6.7016   -2.7848 C.3     1  LIG1       -0.0364
     46 H           7.7965    6.5868   -2.4181 H       1  LIG1        0.0279
     47 H           8.7825    6.7188   -3.8546 H       1  LIG1        0.0279
     48 H           9.2065    7.6188   -2.4182 H       1  LIG1        0.0279
     49 N          12.3189    6.8606   -4.1242 N.1     1  LIG1       -0.1908
     50 C          11.6534    6.2081   -3.4563 C.1     1  LIG1        0.1009
@<TRIPOS>BOND
     1    49    50    3
     2    47    45    1
     3    50    40    1
     4    45    48    1
     5    45    46    1
     6    45    39    1
     7    40    39   ar
     8    40    41   ar
     9    39    38   ar
    10    41    44    1
    11    41    42   ar
    12    38    42   ar
    13    38    30    1
    14    42    43    1
    15    32    31    1
    16    30    31   ar
    17    30    29   ar
    18    31    27   ar
    19    16    21    1
    20    25    23    1
    21    29    35    1
    22    29    28   ar
    23    27    20    1
    24    27    28   ar
    25    35    36    3
    26    21    13    1
    27    20    19    2
    28    36    37    1
    29    14    34    1
    30    12     7    1
    31     7     6   ar
    32     7     4   ar
    33    17     4    1
    34    17    18    2
    35     6     8    1
    36     6     3   ar
    37     4     2   ar
    38     1     2   ar
    39     1     3   ar
    40     1    10    1
    41     2     5    1
    42     3     9    1
    43    10    11    1
    44    28    34    1
    45    19    23    1
    46    19    18    1
    47    23    26    1
    48    23    24    1
    49    18    22    1
    50    34    33    2
