@<TRIPOS>MOLECULE
mol_data/noopt/geoms/mol2/4fl4fl4fl-4fl.out
 62 59 0 0 0
SMALL
GASTEIGER

@<TRIPOS>ATOM
      1 C           0.0509    0.0309    0.0002 C.ar    1  LIG1        0.1177
      2 C           1.4592    0.0309    0.0002 C.ar    1  LIG1       -0.0087
      3 C          -0.6045    1.2792    0.0002 C.ar    1  LIG1       -0.0165
      4 C           2.1849    1.2200   -0.0004 C.ar    1  LIG1        0.0361
      5 H           1.9850   -0.9213    0.0004 H       1  LIG1        0.0661
      6 C           0.1195    2.4666   -0.0004 C.ar    1  LIG1       -0.0109
      7 C           1.5181    2.4458   -0.0008 C.ar    1  LIG1        0.1870
      8 H          -0.4090    3.4165   -0.0003 H       1  LIG1        0.0657
      9 H          -1.9035    1.3287    0.0016 H       1  LIG1        0.0655
     10 O          -0.5709   -1.1108    0.0005 O.3     1  LIG1       -0.5067
     11 H           0.0706   -1.8250    0.0006 H       1  LIG1        0.2921
     12 O           2.1896    3.5590   -0.0012 O.3     1  LIG1       -0.2873
     13 C           3.5904    3.2714   -0.0014 C.3     1  LIG1       -0.0348
     14 H           4.1427    4.1879   -0.0019 H       1  LIG1        0.0306
     15 H           3.8386    2.7059    0.8724 H       1  LIG1        0.0268
     16 H           3.8381    2.7052   -0.8749 H       1  LIG1        0.0268
     17 C           4.1518   -0.0588    0.0002 C.2     1  LIG1        0.1107
     18 C           5.5600   -0.0451    0.0016 C.3     1  LIG1        0.0553
     19 C           3.4843    1.1831   -0.0005 C.2     1  LIG1        0.0347
     20 C           6.2742    1.1510    0.0017 C.2     1  LIG1       -0.0093
     21 H           6.0950   -0.9922    0.0024 H       1  LIG1        0.0436
     22 C           4.1968    2.3775   -0.0004 C.3     1  LIG1       -0.0494
     23 C           5.5955    2.3702    0.0006 C.3     1  LIG1        0.2045
     24 H           3.6591    3.3222   -0.0009 H       2  UNK2        0.0000
     25 O           3.5411   -1.2065   -0.0001 O.2     1  LIG1       -0.5098
     26 H           4.1895   -1.9144   -0.0001 H       1  LIG1        0.2917
     27 O           6.2562    3.4899    0.0008 O.3     1  LIG1       -0.2155
     28 C           7.6597    3.2159    0.0008 C.3     3  LIG3       -0.0309
     29 H           8.2031    4.1377    0.0008 H       0  HOH0        0.2528
     30 H           7.9131    2.6525    0.8745 H       1  LIG1        0.0311
     31 H           7.9131    2.6525   -0.8728 H       1  LIG1        0.0311
     32 C           8.2991    2.3358    0.0043 C.3     1  LIG1       -0.0303
     33 C           9.7051    2.2559    0.0071 C.2     1  LIG1       -0.0724
     34 C           7.5739    1.1267    0.0029 C.2     1  LIG1       -0.0113
     35 C          10.3621    1.0275    0.0079 C.2     1  LIG1        0.0235
     36 H          10.2841    3.1767    0.0084 H       1  LIG1        0.0579
     37 C           8.2293   -0.0999    0.0037 C.2     1  LIG1       -0.0116
     38 C           9.6269   -0.1585    0.0061 C.2     1  LIG1        0.1282
     39 H           7.6478   -1.0183    0.0026 H       1  LIG1        0.0660
     40 O           7.7431    3.5109    0.0034 O.3     4  HOH4       -0.2528
     41 H           6.7880    3.4135    0.0032 H       2  UNK2        0.0309
     42 O          10.2341   -1.3080    0.0069 O.2     1  LIG1       -0.4945
     43 C           9.2651   -2.3597    0.0072 C.3     1  LIG1        0.0788
     44 H           9.7653   -3.3056    0.0077 H       1  LIG1        0.0660
     45 H           8.6523   -2.2798    0.8807 H       1  LIG1        0.0660
     46 H           8.6527   -2.2806   -0.8666 H       1  LIG1        0.0660
     47 C          12.3290   -0.2513    0.0125 C.ar    1  LIG1        0.1249
     48 C          13.7373   -0.2376    0.0167 C.ar    1  LIG1       -0.0161
     49 C          11.6616    0.9906    0.0104 C.ar    1  LIG1        0.0302
     50 C          14.4514    0.9585    0.0181 C.ar    1  LIG1       -0.0165
     51 H          14.2723   -1.1847    0.0186 H       1  LIG1        0.0655
     52 C          12.3740    2.1850    0.0118 C.ar    1  LIG1       -0.0086
     53 C          13.7727    2.1777    0.0156 C.ar    1  LIG1        0.1209
     54 H          11.8363    3.1297    0.0102 H       1  LIG1        0.0661
     55 H          15.7512    0.9342    0.0219 H       1  LIG1        0.0655
     56 O          11.7184   -1.3990    0.0110 O.3     1  LIG1       -0.5062
     57 H          12.3668   -2.1069    0.0107 H       1  LIG1        0.2922
     58 O          14.4334    3.2974    0.0171 O.3     1  LIG1       -0.4951
     59 C          15.8369    3.0234    0.0176 C.3     1  LIG1        0.0788
     60 H          16.3803    3.9452    0.0186 H       1  LIG1        0.0660
     61 H          16.0899    2.4593    0.8909 H       1  LIG1        0.0660
     62 H          16.0908    2.4607   -0.8564 H       1  LIG1        0.0660
@<TRIPOS>BOND
     1    16    22    1
     2    31    32    1
     3    46    43    1
     4    62    59    1
     5    14    13    1
     6    13    22    1
     7    12     7    1
     8     7     4   ar
     9     7     6   ar
    10    19     4    1
    11    19    17    2
    12    22    15    1
    13     4     2   ar
    14     6     8    1
    15     6     3   ar
    16    26    25    1
    17    25    17    1
    18     1     2   ar
    19     1     3   ar
    20     1    10    1
    21     2     5    1
    22     3     9    1
    23    17    18    1
    24    10    11    1
    25    23    27    1
    26    23    20    1
    27    28    41    1
    28    29    40    1
    29    18    20    1
    30    18    21    1
    31    20    34    2
    32    39    37    1
    33    34    37    1
    34    37    38    2
    35    32    33    1
    36    32    30    1
    37    38    42    1
    38    38    35    1
    39    42    43    1
    40    33    35    2
    41    33    36    1
    42    43    44    1
    43    43    45    1
    44    35    49    1
    45    54    52    1
    46    49    52   ar
    47    49    47   ar
    48    57    56    1
    49    56    47    1
    50    52    53   ar
    51    47    48   ar
    52    53    58    1
    53    53    50   ar
    54    48    50   ar
    55    48    51    1
    56    58    59    1
    57    59    60    1
    58    59    61    1
    59    50    55    1
