@<TRIPOS>MOLECULE
mol_data/noopt/geoms/mol2/4fl4fl4fl4fl.out
 62 56 0 0 0
SMALL
GASTEIGER

@<TRIPOS>ATOM
      1 C           0.0509    0.0309    0.0002 C.ar    1  LIG1        0.1177
      2 C           1.4592    0.0309    0.0002 C.ar    1  LIG1       -0.0087
      3 C          -0.6045    1.2792    0.0002 C.ar    1  LIG1       -0.0165
      4 C           2.1849    1.2200   -0.0004 C.ar    1  LIG1        0.0361
      5 H           1.9850   -0.9213    0.0004 H       1  LIG1        0.0661
      6 C           0.1195    2.4666   -0.0004 C.ar    1  LIG1       -0.0109
      7 C           1.5181    2.4458   -0.0008 C.ar    1  LIG1        0.1870
      8 H          -0.4090    3.4165   -0.0003 H       1  LIG1        0.0657
      9 H          -1.9035    1.3287    0.0016 H       1  LIG1        0.0655
     10 O          -0.5709   -1.1108    0.0005 O.3     1  LIG1       -0.5067
     11 H           0.0706   -1.8250    0.0006 H       1  LIG1        0.2921
     12 O           2.1896    3.5590   -0.0012 O.3     1  LIG1       -0.2873
     13 C           3.5904    3.2714   -0.0014 C.3     1  LIG1       -0.0348
     14 H           4.1427    4.1879   -0.0019 H       1  LIG1        0.0306
     15 H           3.8386    2.7059    0.8724 H       1  LIG1        0.0268
     16 H           3.8381    2.7052   -0.8749 H       1  LIG1        0.0268
     17 C           4.1518   -0.0588    0.0002 C.2     1  LIG1        0.1107
     18 C           5.5600   -0.0451    0.0016 C.3     1  LIG1        0.0554
     19 C           3.4843    1.1831   -0.0005 C.2     1  LIG1        0.0347
     20 C           6.2742    1.1510    0.0017 C.2     1  LIG1       -0.0058
     21 H           6.0950   -0.9922    0.0024 H       1  LIG1        0.0436
     22 C           4.1968    2.3775   -0.0004 C.3     1  LIG1       -0.0494
     23 C           5.5955    2.3702    0.0006 C.3     1  LIG1        0.2046
     24 H           3.6591    3.3222   -0.0009 H       2  UNK2        0.0000
     25 O           3.5411   -1.2065   -0.0001 O.2     1  LIG1       -0.5098
     26 H           4.1895   -1.9144   -0.0001 H       1  LIG1        0.2917
     27 O           6.2562    3.4899    0.0008 O.3     1  LIG1       -0.2155
     28 C           7.6597    3.2159    0.0008 C.3     2  UNK2       -0.0348
     29 H           8.2031    4.1377    0.0008 H       2  UNK2        0.0306
     30 H           7.9131    2.6525    0.8745 H       2  UNK2        0.0268
     31 H           7.9131    2.6525   -0.8728 H       2  UNK2        0.0268
     32 C           8.2534   -0.1087    0.0043 C.2     1  LIG1        0.1251
     33 C           9.6614   -0.0814    0.0071 C.2     1  LIG1       -0.0126
     34 C           7.5739    1.1267    0.0029 C.2     1  LIG1        0.0301
     35 C          10.3639    1.1216    0.0079 C.2     1  LIG1        0.0087
     36 H          10.2056   -1.0232    0.0084 H       1  LIG1        0.0658
     37 C           8.2747    2.3279    0.0036 C.3     2  UNK2       -0.0494
     38 C           9.6734    2.3342    0.0060 C.3     1  LIG1        0.2082
     39 H           7.7279    3.2674    0.0026 H       3  UNK3        0.0000
     40 O           7.6539   -1.2622    0.0034 O.2     1  LIG1       -0.5061
     41 H           8.3091   -1.9639    0.0032 H       1  LIG1        0.2922
     42 O          10.3232    3.4602    0.0069 O.3     1  LIG1       -0.2152
     43 C          11.7293    3.1999    0.0071 C.3     3  UNK3       -0.0348
     44 H          12.2637    4.1269    0.0077 H       3  UNK3        0.0306
     45 H          11.9880    2.6386    0.8807 H       3  UNK3        0.0268
     46 H          11.9884    2.6393   -0.8666 H       3  UNK3        0.0268
     47 C          12.3552   -0.1188    0.0125 C.2     1  LIG1        0.1251
     48 C          13.7629   -0.0778    0.0167 C.2     1  LIG1       -0.0160
     49 C          11.6638    1.1099    0.0104 C.2     1  LIG1        0.0337
     50 C          14.4537    1.1319    0.0181 C.2     1  LIG1       -0.0128
     51 H          14.3162   -1.0143    0.0186 H       1  LIG1        0.0655
     52 C          12.3529    2.3179    0.0118 C.3     3  UNK3       -0.0494
     53 C          13.7515    2.3378    0.0156 C.2     1  LIG1        0.1616
     54 H          11.7970    3.2520    0.0102 H       4  UNK4        0.0000
     55 H          15.7537    1.1328    0.0219 H       1  LIG1        0.0656
     56 O          11.7669   -1.2781    0.0110 O.2     1  LIG1       -0.5061
     57 H          12.4290   -1.9733    0.0107 H       1  LIG1        0.2922
     58 O          14.3904    3.4700    0.0171 O.2     1  LIG1       -0.4915
     59 C          15.7989    3.2233    0.0176 C.3     1  LIG1        0.0790
     60 H          16.3243    4.1555    0.0186 H       1  LIG1        0.0660
     61 H          16.0628    2.6642    0.8909 H       1  LIG1        0.0660
     62 H          16.0637    2.6657   -0.8564 H       1  LIG1        0.0660
@<TRIPOS>BOND
     1    16    22    1
     2    31    37    1
     3    46    52    1
     4    62    59    1
     5    14    13    1
     6    13    22    1
     7    12     7    1
     8     7     4   ar
     9     7     6   ar
    10    19     4    1
    11    19    17    2
    12    22    15    1
    13     4     2   ar
    14     6     8    1
    15     6     3   ar
    16    26    25    1
    17    25    17    1
    18     1     2   ar
    19     1     3   ar
    20     1    10    1
    21     2     5    1
    22     3     9    1
    23    17    18    1
    24    10    11    1
    25    23    27    1
    26    23    20    1
    27    28    29    1
    28    28    37    1
    29    18    20    1
    30    18    21    1
    31    20    34    2
    32    34    32    1
    33    41    40    1
    34    40    32    1
    35    37    30    1
    36    32    33    2
    37    38    42    1
    38    38    35    1
    39    33    35    1
    40    33    36    1
    41    43    44    1
    42    43    52    1
    43    35    49    2
    44    49    47    1
    45    57    56    1
    46    56    47    1
    47    52    45    1
    48    47    48    2
    49    53    58    1
    50    53    50    2
    51    48    50    1
    52    48    51    1
    53    58    59    1
    54    59    60    1
    55    59    61    1
    56    50    55    1
