@<TRIPOS>MOLECULE
mol_data/noopt/geoms/mol2/4fl4fl-4fl-4fl-.out
 62 62 0 0 0
SMALL
GASTEIGER

@<TRIPOS>ATOM
      1 C           0.0509    0.0309    0.0002 C.ar    1  LIG1        0.1177
      2 C           1.4592    0.0309    0.0002 C.ar    1  LIG1       -0.0088
      3 C          -0.6045    1.2792    0.0002 C.ar    1  LIG1       -0.0165
      4 C           2.1849    1.2200   -0.0004 C.ar    1  LIG1        0.0326
      5 H           1.9850   -0.9213    0.0004 H       1  LIG1        0.0661
      6 C           0.1195    2.4666   -0.0004 C.ar    1  LIG1       -0.0109
      7 C           1.5181    2.4458   -0.0008 C.ar    1  LIG1        0.1869
      8 H          -0.4090    3.4165   -0.0003 H       1  LIG1        0.0657
      9 H          -1.9035    1.3287    0.0016 H       1  LIG1        0.0655
     10 O          -0.5709   -1.1108    0.0005 O.3     1  LIG1       -0.5067
     11 H           0.0706   -1.8250    0.0006 H       1  LIG1        0.2921
     12 O           2.1896    3.5590   -0.0012 O.3     1  LIG1       -0.2873
     13 C           3.5904    3.2714   -0.0014 C.3     2  LIG2       -0.0309
     14 H           4.1427    4.1879   -0.0019 H       0  HOH0        0.2528
     15 H           3.8386    2.7059    0.8724 H       1  LIG1        0.0310
     16 H           3.8381    2.7052   -0.8749 H       1  LIG1        0.0310
     17 C           4.2212    2.3851    0.0002 C.3     1  LIG1       -0.0306
     18 C           5.6264    2.2916    0.0016 C.2     1  LIG1       -0.0767
     19 C           3.4843    1.1831   -0.0005 C.2     1  LIG1       -0.0073
     20 C           6.2715    1.0569    0.0017 C.2     1  LIG1       -0.0018
     21 H           6.2143    3.2067    0.0024 H       1  LIG1        0.0576
     22 C           4.1278   -0.0498   -0.0004 C.2     1  LIG1       -0.0363
     23 C           5.5247   -0.1219    0.0006 C.3     1  LIG1        0.1498
     24 H           3.5374   -0.9625   -0.0009 H       1  LIG1        0.0611
     25 O           3.6766    3.5656   -0.0001 O.3     3  HOH3       -0.2528
     26 H           2.7207    3.4775   -0.0002 H       1  LIG1        0.0309
     27 O           6.1208   -1.2773    0.0008 O.3     1  LIG1       -0.3643
     28 C           5.1417   -2.3195    0.0008 C.3     1  LIG1        0.0382
     29 H           5.6327   -3.2702    0.0009 H       1  LIG1        0.0524
     30 H           4.5298   -2.2340    0.8745 H       1  LIG1        0.0524
     31 H           4.5298   -2.2341   -0.8728 H       1  LIG1        0.0524
     32 C           8.3190    2.2022    0.0043 C.ar    1  LIG1        0.1251
     33 C           9.7232    2.0950    0.0071 C.ar    1  LIG1       -0.0083
     34 C           7.5705    1.0074    0.0029 C.ar    1  LIG1        0.0259
     35 C          10.3563    0.8541    0.0079 C.ar    1  LIG1        0.0309
     36 H          10.3199    3.0044    0.0084 H       1  LIG1        0.0661
     37 C           8.2020   -0.2317    0.0037 C.ar    1  LIG1       -0.0084
     38 C           9.5982   -0.3174    0.0061 C.ar    1  LIG1        0.1287
     39 H           7.6028   -1.1386    0.0026 H       1  LIG1        0.0661
     40 O           7.7859    3.3879    0.0034 O.3     1  LIG1       -0.5061
     41 H           6.8292    3.3091    0.0032 H       1  LIG1        0.2922
     42 O          10.1830   -1.4784    0.0069 O.3     1  LIG1       -0.4945
     43 C           9.1938   -2.5111    0.0072 C.3     1  LIG1        0.0788
     44 H           9.6755   -3.4665    0.0077 H       1  LIG1        0.0660
     45 H           8.5826   -2.4194    0.8807 H       1  LIG1        0.0660
     46 H           8.5830   -2.4202   -0.8666 H       1  LIG1        0.0660
     47 C          12.4148    1.9795    0.0125 C.ar    1  LIG1        0.1249
     48 C          13.8179    1.8587    0.0167 C.ar    1  LIG1       -0.0161
     49 C          11.6548    0.7920    0.0104 C.ar    1  LIG1        0.0306
     50 C          14.4389    0.6118    0.0181 C.ar    1  LIG1       -0.0165
     51 H          14.4234    2.7623    0.0186 H       1  LIG1        0.0655
     52 C          12.2742   -0.4531    0.0118 C.ar    1  LIG1       -0.0086
     53 C          13.6695   -0.5523    0.0156 C.ar    1  LIG1        0.1209
     54 H          11.6662   -1.3542    0.0102 H       1  LIG1        0.0661
     55 H          15.7368    0.5371    0.0219 H       1  LIG1        0.0655
     56 O          11.8933    3.1704    0.0110 O.3     1  LIG1       -0.5062
     57 H          10.9358    3.1008    0.0107 H       1  LIG1        0.2922
     58 O          14.2430   -1.7190    0.0171 O.3     1  LIG1       -0.4951
     59 C          13.2438   -2.7420    0.0176 C.3     1  LIG1        0.0788
     60 H          13.7163   -3.7021    0.0186 H       1  LIG1        0.0660
     61 H          12.6334   -2.6440    0.8909 H       1  LIG1        0.0660
     62 H          12.6342   -2.6456   -0.8564 H       1  LIG1        0.0660
@<TRIPOS>BOND
     1    16    17    1
     2    31    28    1
     3    46    43    1
     4    62    59    1
     5    14    25    1
     6    13    26    1
     7    12     7    1
     8    24    22    1
     9     7     4   ar
    10     7     6   ar
    11    19    22    2
    12    19     4    1
    13    22    23    1
    14     4     2   ar
    15     6     8    1
    16     6     3   ar
    17    17    18    1
    18    17    15    1
    19     1     2   ar
    20     1     3   ar
    21     1    10    1
    22     2     5    1
    23     3     9    1
    24    10    11    1
    25    23    27    1
    26    23    20    1
    27    27    28    1
    28    28    29    1
    29    28    30    1
    30    18    20    2
    31    18    21    1
    32    20    34    1
    33    39    37    1
    34    34    37   ar
    35    34    32   ar
    36    41    40    1
    37    40    32    1
    38    37    38   ar
    39    32    33   ar
    40    38    42    1
    41    38    35   ar
    42    42    43    1
    43    33    35   ar
    44    33    36    1
    45    43    44    1
    46    43    45    1
    47    35    49    1
    48    54    52    1
    49    49    52   ar
    50    49    47   ar
    51    57    56    1
    52    56    47    1
    53    52    53   ar
    54    47    48   ar
    55    53    58    1
    56    53    50   ar
    57    48    50   ar
    58    48    51    1
    59    58    59    1
    60    59    60    1
    61    59    61    1
    62    50    55    1
