@<TRIPOS>MOLECULE
mol_data/noopt/geoms/mol2/4fl4fl.out
 32 30 0 0 0
SMALL
GASTEIGER

@<TRIPOS>ATOM
      1 C           0.0509    0.0309    0.0002 C.ar    1  LIG1        0.1177
      2 C           1.4592    0.0309    0.0002 C.ar    1  LIG1       -0.0087
      3 C          -0.6045    1.2792    0.0002 C.ar    1  LIG1       -0.0165
      4 C           2.1849    1.2200   -0.0004 C.ar    1  LIG1        0.0361
      5 H           1.9850   -0.9213    0.0004 H       1  LIG1        0.0661
      6 C           0.1195    2.4666   -0.0004 C.ar    1  LIG1       -0.0109
      7 C           1.5181    2.4458   -0.0008 C.ar    1  LIG1        0.1870
      8 H          -0.4090    3.4165   -0.0003 H       1  LIG1        0.0657
      9 H          -1.9035    1.3287    0.0016 H       1  LIG1        0.0655
     10 O          -0.5709   -1.1108    0.0005 O.3     1  LIG1       -0.5067
     11 H           0.0706   -1.8250    0.0006 H       1  LIG1        0.2921
     12 O           2.1896    3.5590   -0.0012 O.3     1  LIG1       -0.2873
     13 C           3.5904    3.2714   -0.0014 C.3     1  LIG1       -0.0348
     14 H           4.1427    4.1879   -0.0019 H       1  LIG1        0.0306
     15 H           3.8386    2.7059    0.8724 H       1  LIG1        0.0268
     16 H           3.8381    2.7052   -0.8749 H       1  LIG1        0.0268
     17 C           4.1518   -0.0588    0.0002 C.2     1  LIG1        0.1104
     18 C           5.5600   -0.0451    0.0016 C.3     1  LIG1        0.0520
     19 C           3.4843    1.1831   -0.0005 C.2     1  LIG1        0.0347
     20 C           6.2742    1.1510    0.0017 C.2     1  LIG1       -0.0273
     21 H           6.0950   -0.9922    0.0024 H       1  LIG1        0.0433
     22 C           4.1968    2.3775   -0.0004 C.3     1  LIG1       -0.0494
     23 C           5.5955    2.3702    0.0006 C.2     1  LIG1        0.1580
     24 H           3.6591    3.3222   -0.0009 H       2  UNK2        0.0000
     25 H           7.5740    1.1267    0.0029 H       1  LIG1        0.0617
     26 O           3.5411   -1.2065   -0.0001 O.2     1  LIG1       -0.5098
     27 H           4.1895   -1.9144   -0.0001 H       1  LIG1        0.2917
     28 O           6.2562    3.4899    0.0008 O.2     1  LIG1       -0.4918
     29 C           7.6597    3.2159    0.0008 C.3     1  LIG1        0.0789
     30 H           8.2031    4.1377    0.0008 H       1  LIG1        0.0660
     31 H           7.9131    2.6525    0.8745 H       1  LIG1        0.0660
     32 H           7.9131    2.6525   -0.8728 H       1  LIG1        0.0660
@<TRIPOS>BOND
     1    16    22    1
     2    32    29    1
     3    14    13    1
     4    13    22    1
     5    12     7    1
     6     7     4   ar
     7     7     6   ar
     8    19     4    1
     9    19    17    2
    10    22    15    1
    11     4     2   ar
    12     6     8    1
    13     6     3   ar
    14    27    26    1
    15    26    17    1
    16     1     2   ar
    17     1     3   ar
    18     1    10    1
    19     2     5    1
    20     3     9    1
    21    17    18    1
    22    10    11    1
    23    23    28    1
    24    23    20    2
    25    28    29    1
    26    29    30    1
    27    29    31    1
    28    18    20    1
    29    18    21    1
    30    20    25    1
