@<TRIPOS>MOLECULE
mol_data/noopt/geoms/mol2/4fl4fl-4fl.out
 47 46 0 0 0
SMALL
GASTEIGER

@<TRIPOS>ATOM
      1 C           0.0509    0.0309    0.0002 C.ar    1  LIG1        0.1177
      2 C           1.4592    0.0309    0.0002 C.ar    1  LIG1       -0.0088
      3 C          -0.6045    1.2792    0.0002 C.ar    1  LIG1       -0.0165
      4 C           2.1849    1.2200   -0.0004 C.ar    1  LIG1        0.0326
      5 H           1.9850   -0.9213    0.0004 H       1  LIG1        0.0661
      6 C           0.1195    2.4666   -0.0004 C.ar    1  LIG1       -0.0109
      7 C           1.5181    2.4458   -0.0008 C.ar    1  LIG1        0.1869
      8 H          -0.4090    3.4165   -0.0003 H       1  LIG1        0.0657
      9 H          -1.9035    1.3287    0.0016 H       1  LIG1        0.0655
     10 O          -0.5709   -1.1108    0.0005 O.3     1  LIG1       -0.5067
     11 H           0.0706   -1.8250    0.0006 H       1  LIG1        0.2921
     12 O           2.1896    3.5590   -0.0012 O.3     1  LIG1       -0.2873
     13 C           3.5904    3.2714   -0.0014 C.3     2  LIG2       -0.0309
     14 H           4.1427    4.1879   -0.0019 H       0  HOH0        0.2528
     15 H           3.8386    2.7059    0.8724 H       1  LIG1        0.0310
     16 H           3.8381    2.7052   -0.8749 H       1  LIG1        0.0310
     17 C           4.2212    2.3851    0.0002 C.3     1  LIG1       -0.0306
     18 C           5.6264    2.2916    0.0016 C.2     1  LIG1       -0.0767
     19 C           3.4843    1.1831   -0.0005 C.2     1  LIG1       -0.0073
     20 C           6.2715    1.0569    0.0017 C.2     1  LIG1       -0.0018
     21 H           6.2143    3.2067    0.0024 H       1  LIG1        0.0576
     22 C           4.1278   -0.0498   -0.0004 C.2     1  LIG1       -0.0363
     23 C           5.5247   -0.1219    0.0006 C.3     1  LIG1        0.1498
     24 H           3.5374   -0.9625   -0.0009 H       1  LIG1        0.0611
     25 O           3.6766    3.5656   -0.0001 O.3     3  HOH3       -0.2528
     26 H           2.7207    3.4775   -0.0002 H       1  LIG1        0.0309
     27 O           6.1208   -1.2773    0.0008 O.3     1  LIG1       -0.3643
     28 C           5.1417   -2.3195    0.0008 C.3     1  LIG1        0.0382
     29 H           5.6327   -3.2702    0.0009 H       1  LIG1        0.0524
     30 H           4.5298   -2.2340    0.8745 H       1  LIG1        0.0524
     31 H           4.5298   -2.2341   -0.8728 H       1  LIG1        0.0524
     32 C           8.2259   -0.2409    0.0043 C.ar    1  LIG1        0.1245
     33 C           9.6342   -0.2409    0.0071 C.ar    1  LIG1       -0.0161
     34 C           7.5705    1.0074    0.0029 C.ar    1  LIG1        0.0259
     35 C          10.3599    0.9482    0.0079 C.ar    1  LIG1       -0.0165
     36 H          10.1600   -1.1931    0.0084 H       1  LIG1        0.0655
     37 C           8.2945    2.1948    0.0036 C.ar    1  LIG1       -0.0090
     38 C           9.6931    2.1740    0.0060 C.ar    1  LIG1        0.1209
     39 H           7.7660    3.1447    0.0026 H       1  LIG1        0.0661
     40 H          11.6594    0.9113    0.0104 H       1  LIG1        0.0655
     41 O           7.6041   -1.3826    0.0034 O.3     1  LIG1       -0.5062
     42 H           8.2456   -2.0968    0.0032 H       1  LIG1        0.2922
     43 O          10.3646    3.2872    0.0069 O.3     1  LIG1       -0.4951
     44 C          11.7654    2.9996    0.0071 C.3     1  LIG1        0.0788
     45 H          12.3177    3.9160    0.0077 H       1  LIG1        0.0660
     46 H          12.0131    2.4334    0.8807 H       1  LIG1        0.0660
     47 H          12.0136    2.4341   -0.8666 H       1  LIG1        0.0660
@<TRIPOS>BOND
     1    16    17    1
     2    31    28    1
     3    47    44    1
     4    14    25    1
     5    13    26    1
     6    12     7    1
     7    24    22    1
     8     7     6   ar
     9     7     4   ar
    10    19    22    2
    11    19     4    1
    12    22    23    1
    13     6     8    1
    14     6     3   ar
    15     4     2   ar
    16    17    18    1
    17    17    15    1
    18     2     1   ar
    19     2     5    1
    20     3     1   ar
    21     3     9    1
    22     1    10    1
    23    10    11    1
    24    23    27    1
    25    23    20    1
    26    27    28    1
    27    28    29    1
    28    28    30    1
    29    18    20    2
    30    18    21    1
    31    20    34    1
    32    39    37    1
    33    34    37   ar
    34    34    32   ar
    35    42    41    1
    36    41    32    1
    37    37    38   ar
    38    32    33   ar
    39    38    43    1
    40    38    35   ar
    41    43    44    1
    42    33    35   ar
    43    33    36    1
    44    44    45    1
    45    44    46    1
    46    35    40    1
