@<TRIPOS>MOLECULE
mol_data/noopt/geoms/mol2/4ga4ga-4ga-4ga.out
 46 49 0 0 0
SMALL
GASTEIGER

@<TRIPOS>ATOM
      1 C           0.0509    0.0309    0.0002 C.ar    1  LIG1        0.0053
      2 C           1.4592    0.0309    0.0002 C.ar    1  LIG1       -0.0408
      3 C          -0.6045    1.2792    0.0002 C.ar    1  LIG1       -0.0485
      4 C           2.1849    1.2200   -0.0004 C.ar    1  LIG1       -0.0158
      5 H           1.9850   -0.9213    0.0004 H       1  LIG1        0.0635
      6 C           0.1195    2.4666   -0.0004 C.ar    1  LIG1       -0.0602
      7 C           1.5181    2.4458   -0.0008 C.ar    1  LIG1       -0.0539
      8 H          -0.4090    3.4165   -0.0003 H       1  LIG1        0.0618
      9 H          -1.9035    1.3287    0.0016 H       1  LIG1        0.0628
     10 S          -0.5708   -1.1107    0.0005 S.3     1  LIG1       -0.1426
     11 H           0.3045   -2.0853    0.0006 H       1  LIG1        0.1071
     12 H           2.1896    3.5590   -0.0012 H       1  LIG1        0.0624
     13 C           4.1518   -0.0586    0.0215 C.ar    1  LIG1        0.0130
     14 C           5.5600   -0.0449    0.0220 C.ar    1  LIG1       -0.0402
     15 C           3.4843    1.1831   -0.0005 C.ar    1  LIG1       -0.0047
     16 C           6.2742    1.1510    0.0009 C.ar    1  LIG1       -0.0158
     17 H           6.0951   -0.9918    0.0390 H       1  LIG1        0.0635
     18 C           4.1968    2.3773   -0.0216 C.ar    1  LIG1       -0.0524
     19 C           5.5955    2.3701   -0.0212 C.ar    1  LIG1       -0.0534
     20 H           3.6591    3.3219   -0.0383 H       1  LIG1        0.0624
     21 S           3.5412   -1.2060    0.0416 S.3     1  LIG1       -0.1420
     22 H           4.4259   -2.1721    0.0483 H       1  LIG1        0.1071
     23 H           6.2561    3.4895   -0.0408 H       1  LIG1        0.0624
     24 C           8.2534   -0.1084    0.0245 C.ar    1  LIG1        0.0130
     25 C           9.6614   -0.0811    0.0261 C.ar    1  LIG1       -0.0402
     26 C           7.5739    1.1267    0.0018 C.ar    1  LIG1       -0.0047
     27 C          10.3639    1.1217    0.0055 C.ar    1  LIG1       -0.0158
     28 H          10.2056   -1.0227    0.0436 H       1  LIG1        0.0635
     29 C           8.2747    2.3278   -0.0187 C.ar    1  LIG1       -0.0524
     30 C           9.6734    2.3341   -0.0171 C.ar    1  LIG1       -0.0534
     31 H           7.7279    3.2671   -0.0358 H       1  LIG1        0.0624
     32 S           7.6539   -1.2617    0.0440 S.3     1  LIG1       -0.1420
     33 H           8.5480   -2.2192    0.0506 H       1  LIG1        0.1071
     34 H          10.3232    3.4600   -0.0362 H       1  LIG1        0.0624
     35 C          12.3553   -0.1186    0.0095 C.ar    1  LIG1        0.0124
     36 C          13.7630   -0.0776    0.0132 C.ar    1  LIG1       -0.0480
     37 C          11.6638    1.1101    0.0076 C.ar    1  LIG1       -0.0047
     38 C          14.4537    1.1322    0.0144 C.ar    1  LIG1       -0.0607
     39 H          14.3163   -1.0141    0.0149 H       1  LIG1        0.0629
     40 C          12.3529    2.3181    0.0088 C.ar    1  LIG1       -0.0530
     41 C          13.7515    2.3380    0.0121 C.ar    1  LIG1       -0.0611
     42 H          11.7970    3.2522    0.0074 H       1  LIG1        0.0624
     43 H          15.7537    1.1331    0.0178 H       1  LIG1        0.0618
     44 S          11.7671   -1.2779    0.0082 S.3     1  LIG1       -0.1420
     45 H          12.6704   -2.2265    0.0078 H       1  LIG1        0.1071
     46 H          14.3903    3.4703    0.0134 H       1  LIG1        0.0618
@<TRIPOS>BOND
     1    23    19    1
     2    20    18    1
     3    34    30    1
     4    31    29    1
     5    18    19   ar
     6    18    15   ar
     7    19    16   ar
     8    29    30   ar
     9    29    26   ar
    10    30    27   ar
    11    12     7    1
    12     7     4   ar
    13     7     6   ar
    14    15     4    1
    15    15    13   ar
    16     4     2   ar
    17     6     8    1
    18     6     3   ar
    19     2     1   ar
    20     2     5    1
    21     3     1   ar
    22     3     9    1
    23     1    10    1
    24    10    11    1
    25    16    26    1
    26    16    14   ar
    27    26    24   ar
    28    27    37    1
    29    27    25   ar
    30    42    40    1
    31    37    40   ar
    32    37    35   ar
    33    45    44    1
    34    44    35    1
    35    40    41   ar
    36    35    36   ar
    37    41    46    1
    38    41    38   ar
    39    36    38   ar
    40    36    39    1
    41    38    43    1
    42    13    14   ar
    43    13    21    1
    44    14    17    1
    45    24    25   ar
    46    24    32    1
    47    25    28    1
    48    21    22    1
    49    32    33    1
