@<TRIPOS>MOLECULE
mol_data/noopt/geoms/mol2/4ga4ga-4ga4ga.out
 46 49 0 0 0
SMALL
GASTEIGER

@<TRIPOS>ATOM
      1 C           0.0509    0.0309    0.0002 C.ar    1  LIG1        0.0053
      2 C           1.4592    0.0309    0.0002 C.ar    1  LIG1       -0.0408
      3 C          -0.6045    1.2792    0.0002 C.ar    1  LIG1       -0.0485
      4 C           2.1849    1.2200   -0.0004 C.ar    1  LIG1       -0.0158
      5 H           1.9850   -0.9213    0.0004 H       1  LIG1        0.0635
      6 C           0.1195    2.4666   -0.0004 C.ar    1  LIG1       -0.0602
      7 C           1.5181    2.4458   -0.0008 C.ar    1  LIG1       -0.0539
      8 H          -0.4090    3.4165   -0.0003 H       1  LIG1        0.0618
      9 H          -1.9035    1.3287    0.0016 H       1  LIG1        0.0628
     10 S          -0.5708   -1.1107    0.0005 S.3     1  LIG1       -0.1426
     11 H           0.3045   -2.0853    0.0006 H       1  LIG1        0.1071
     12 H           2.1896    3.5590   -0.0012 H       1  LIG1        0.0624
     13 C           4.1518   -0.0586    0.0215 C.ar    1  LIG1        0.0130
     14 C           5.5600   -0.0449    0.0220 C.ar    1  LIG1       -0.0402
     15 C           3.4843    1.1831   -0.0005 C.ar    1  LIG1       -0.0047
     16 C           6.2742    1.1510    0.0009 C.ar    1  LIG1       -0.0158
     17 H           6.0951   -0.9918    0.0390 H       1  LIG1        0.0635
     18 C           4.1968    2.3773   -0.0216 C.ar    1  LIG1       -0.0524
     19 C           5.5955    2.3701   -0.0212 C.ar    1  LIG1       -0.0534
     20 H           3.6591    3.3219   -0.0383 H       1  LIG1        0.0624
     21 S           3.5412   -1.2060    0.0416 S.3     1  LIG1       -0.1420
     22 H           4.4259   -2.1721    0.0483 H       1  LIG1        0.1071
     23 H           6.2561    3.4895   -0.0408 H       1  LIG1        0.0624
     24 C           8.2534   -0.1086    0.0031 C.ar    1  LIG1        0.0130
     25 C           9.6614   -0.0813    0.0057 C.ar    1  LIG1       -0.0402
     26 C           7.5739    1.1267    0.0018 C.ar    1  LIG1       -0.0047
     27 C          10.3639    1.1217    0.0064 C.ar    1  LIG1       -0.0158
     28 H          10.2056   -1.0231    0.0069 H       1  LIG1        0.0635
     29 C           8.2747    2.3280    0.0025 C.ar    1  LIG1       -0.0524
     30 C           9.6734    2.3343    0.0046 C.ar    1  LIG1       -0.0534
     31 H           7.7278    3.2674    0.0016 H       1  LIG1        0.0624
     32 S           7.6540   -1.2621    0.0024 S.3     1  LIG1       -0.1420
     33 H           8.5481   -2.2195    0.0021 H       1  LIG1        0.1071
     34 H          10.3232    3.4603    0.0054 H       1  LIG1        0.0624
     35 C          12.3552   -0.1187    0.0106 C.ar    1  LIG1        0.0124
     36 C          13.7629   -0.0777    0.0146 C.ar    1  LIG1       -0.0480
     37 C          11.6638    1.1100    0.0086 C.ar    1  LIG1       -0.0047
     38 C          14.4537    1.1321    0.0159 C.ar    1  LIG1       -0.0607
     39 H          14.3162   -1.0142    0.0164 H       1  LIG1        0.0629
     40 C          12.3529    2.3180    0.0100 C.ar    1  LIG1       -0.0530
     41 C          13.7515    2.3379    0.0135 C.ar    1  LIG1       -0.0611
     42 H          11.7970    3.2521    0.0085 H       1  LIG1        0.0624
     43 H          15.7537    1.1330    0.0195 H       1  LIG1        0.0618
     44 S          11.7670   -1.2779    0.0093 S.3     1  LIG1       -0.1420
     45 H          12.6704   -2.2266    0.0088 H       1  LIG1        0.1071
     46 H          14.3903    3.4702    0.0149 H       1  LIG1        0.0618
@<TRIPOS>BOND
     1    23    19    1
     2    20    18    1
     3    18    19   ar
     4    18    15   ar
     5    19    16   ar
     6    12     7    1
     7     7     4   ar
     8     7     6   ar
     9    15     4    1
    10    15    13   ar
    11     4     2   ar
    12     6     8    1
    13     6     3   ar
    14     2     1   ar
    15     2     5    1
    16     3     1   ar
    17     3     9    1
    18     1    10    1
    19    10    11    1
    20    16    26    1
    21    16    14   ar
    22    31    29    1
    23    26    29   ar
    24    26    24   ar
    25    33    32    1
    26    32    24    1
    27    29    30   ar
    28    24    25   ar
    29    30    34    1
    30    30    27   ar
    31    25    27   ar
    32    25    28    1
    33    27    37    1
    34    42    40    1
    35    37    40   ar
    36    37    35   ar
    37    45    44    1
    38    44    35    1
    39    40    41   ar
    40    35    36   ar
    41    41    46    1
    42    41    38   ar
    43    36    38   ar
    44    36    39    1
    45    38    43    1
    46    13    14   ar
    47    13    21    1
    48    14    17    1
    49    21    22    1
