@<TRIPOS>MOLECULE
mol_data/noopt/geoms/mol2/4ga4ga-4ga4ga-.out
 46 49 0 0 0
SMALL
GASTEIGER

@<TRIPOS>ATOM
      1 C           0.0509    0.0309    0.0002 C.ar    1  LIG1        0.0053
      2 C           1.4592    0.0309    0.0002 C.ar    1  LIG1       -0.0408
      3 C          -0.6045    1.2792    0.0002 C.ar    1  LIG1       -0.0485
      4 C           2.1849    1.2200   -0.0004 C.ar    1  LIG1       -0.0158
      5 H           1.9850   -0.9213    0.0004 H       1  LIG1        0.0635
      6 C           0.1195    2.4666   -0.0004 C.ar    1  LIG1       -0.0602
      7 C           1.5181    2.4458   -0.0008 C.ar    1  LIG1       -0.0539
      8 H          -0.4090    3.4165   -0.0003 H       1  LIG1        0.0618
      9 H          -1.9035    1.3287    0.0016 H       1  LIG1        0.0628
     10 S          -0.5708   -1.1107    0.0005 S.3     1  LIG1       -0.1426
     11 H           0.3045   -2.0853    0.0006 H       1  LIG1        0.1071
     12 H           2.1896    3.5590   -0.0012 H       1  LIG1        0.0624
     13 C           4.1518   -0.0586    0.0215 C.ar    1  LIG1        0.0130
     14 C           5.5600   -0.0449    0.0220 C.ar    1  LIG1       -0.0402
     15 C           3.4843    1.1831   -0.0005 C.ar    1  LIG1       -0.0047
     16 C           6.2742    1.1510    0.0009 C.ar    1  LIG1       -0.0158
     17 H           6.0951   -0.9918    0.0390 H       1  LIG1        0.0635
     18 C           4.1968    2.3773   -0.0216 C.ar    1  LIG1       -0.0524
     19 C           5.5955    2.3701   -0.0212 C.ar    1  LIG1       -0.0534
     20 H           3.6591    3.3219   -0.0383 H       1  LIG1        0.0624
     21 S           3.5412   -1.2060    0.0416 S.3     1  LIG1       -0.1420
     22 H           4.4259   -2.1721    0.0483 H       1  LIG1        0.1071
     23 H           6.2561    3.4895   -0.0408 H       1  LIG1        0.0624
     24 C           8.2534   -0.1086    0.0031 C.ar    1  LIG1        0.0130
     25 C           9.6614   -0.0813    0.0057 C.ar    1  LIG1       -0.0402
     26 C           7.5739    1.1267    0.0018 C.ar    1  LIG1       -0.0047
     27 C          10.3639    1.1217    0.0064 C.ar    1  LIG1       -0.0158
     28 H          10.2056   -1.0231    0.0069 H       1  LIG1        0.0635
     29 C           8.2747    2.3280    0.0025 C.ar    1  LIG1       -0.0524
     30 C           9.6734    2.3343    0.0046 C.ar    1  LIG1       -0.0534
     31 H           7.7278    3.2674    0.0016 H       1  LIG1        0.0624
     32 S           7.6540   -1.2621    0.0024 S.3     1  LIG1       -0.1420
     33 H           8.5481   -2.2195    0.0021 H       1  LIG1        0.1071
     34 H          10.3232    3.4603    0.0054 H       1  LIG1        0.0624
     35 C          12.3552   -0.1185    0.0320 C.ar    1  LIG1        0.0124
     36 C          13.7629   -0.0774    0.0350 C.ar    1  LIG1       -0.0480
     37 C          11.6638    1.1100    0.0086 C.ar    1  LIG1       -0.0047
     38 C          14.4537    1.1321    0.0151 C.ar    1  LIG1       -0.0607
     39 H          14.3162   -1.0138    0.0530 H       1  LIG1        0.0629
     40 C          12.3529    2.3178   -0.0112 C.ar    1  LIG1       -0.0530
     41 C          13.7516    2.3378   -0.0082 C.ar    1  LIG1       -0.0611
     42 H          11.7970    3.2518   -0.0289 H       1  LIG1        0.0624
     43 H          15.7537    1.1331    0.0185 H       1  LIG1        0.0618
     44 S          11.7670   -1.2775    0.0509 S.3     1  LIG1       -0.1420
     45 H          12.6703   -2.2263    0.0573 H       1  LIG1        0.1071
     46 H          14.3904    3.4698   -0.0267 H       1  LIG1        0.0618
@<TRIPOS>BOND
     1    23    19    1
     2    20    18    1
     3    42    40    1
     4    46    41    1
     5    18    19   ar
     6    18    15   ar
     7    19    16   ar
     8    40    41   ar
     9    40    37   ar
    10    41    38   ar
    11    12     7    1
    12     7     4   ar
    13     7     6   ar
    14    15     4    1
    15    15    13   ar
    16     4     2   ar
    17     6     8    1
    18     6     3   ar
    19     1     2   ar
    20     1     3   ar
    21     1    10    1
    22     2     5    1
    23     3     9    1
    24    10    11    1
    25    16    26    1
    26    16    14   ar
    27    31    29    1
    28    26    29   ar
    29    26    24   ar
    30    33    32    1
    31    32    24    1
    32    29    30   ar
    33    24    25   ar
    34    30    34    1
    35    30    27   ar
    36    25    27   ar
    37    25    28    1
    38    27    37    1
    39    37    35   ar
    40    38    43    1
    41    38    36   ar
    42    13    14   ar
    43    13    21    1
    44    14    17    1
    45    35    36   ar
    46    35    44    1
    47    36    39    1
    48    21    22    1
    49    44    45    1
