@<TRIPOS>MOLECULE
mol_data/noopt/geoms/mol2/4ga4ga-4ga-4ga-.out
 46 49 0 0 0
SMALL
GASTEIGER

@<TRIPOS>ATOM
      1 C           0.0509    0.0309    0.0002 C.ar    1  LIG1        0.0053
      2 C           1.4592    0.0309    0.0002 C.ar    1  LIG1       -0.0408
      3 C          -0.6045    1.2792    0.0002 C.ar    1  LIG1       -0.0485
      4 C           2.1849    1.2200   -0.0004 C.ar    1  LIG1       -0.0158
      5 H           1.9850   -0.9213    0.0004 H       1  LIG1        0.0635
      6 C           0.1195    2.4666   -0.0004 C.ar    1  LIG1       -0.0602
      7 C           1.5181    2.4458   -0.0008 C.ar    1  LIG1       -0.0539
      8 H          -0.4090    3.4165   -0.0003 H       1  LIG1        0.0618
      9 H          -1.9035    1.3287    0.0016 H       1  LIG1        0.0628
     10 S          -0.5708   -1.1107    0.0005 S.3     1  LIG1       -0.1426
     11 H           0.3045   -2.0853    0.0006 H       1  LIG1        0.1071
     12 H           2.1896    3.5590   -0.0012 H       1  LIG1        0.0624
     13 C           4.1518   -0.0586    0.0215 C.ar    1  LIG1        0.0130
     14 C           5.5600   -0.0449    0.0220 C.ar    1  LIG1       -0.0402
     15 C           3.4843    1.1831   -0.0005 C.ar    1  LIG1       -0.0047
     16 C           6.2742    1.1510    0.0009 C.ar    1  LIG1       -0.0158
     17 H           6.0951   -0.9918    0.0390 H       1  LIG1        0.0635
     18 C           4.1968    2.3773   -0.0216 C.ar    1  LIG1       -0.0524
     19 C           5.5955    2.3701   -0.0212 C.ar    1  LIG1       -0.0534
     20 H           3.6591    3.3219   -0.0383 H       1  LIG1        0.0624
     21 S           3.5412   -1.2060    0.0416 S.3     1  LIG1       -0.1420
     22 H           4.4259   -2.1721    0.0483 H       1  LIG1        0.1071
     23 H           6.2561    3.4895   -0.0408 H       1  LIG1        0.0624
     24 C           8.2534   -0.1084    0.0245 C.ar    1  LIG1        0.0130
     25 C           9.6614   -0.0811    0.0261 C.ar    1  LIG1       -0.0402
     26 C           7.5739    1.1267    0.0018 C.ar    1  LIG1       -0.0047
     27 C          10.3639    1.1217    0.0055 C.ar    1  LIG1       -0.0158
     28 H          10.2056   -1.0227    0.0436 H       1  LIG1        0.0635
     29 C           8.2747    2.3278   -0.0187 C.ar    1  LIG1       -0.0524
     30 C           9.6734    2.3341   -0.0171 C.ar    1  LIG1       -0.0534
     31 H           7.7279    3.2671   -0.0358 H       1  LIG1        0.0624
     32 S           7.6539   -1.2617    0.0440 S.3     1  LIG1       -0.1420
     33 H           8.5480   -2.2192    0.0506 H       1  LIG1        0.1071
     34 H          10.3232    3.4600   -0.0362 H       1  LIG1        0.0624
     35 C          12.3552   -0.1184    0.0308 C.ar    1  LIG1        0.0124
     36 C          13.7629   -0.0774    0.0336 C.ar    1  LIG1       -0.0480
     37 C          11.6638    1.1101    0.0076 C.ar    1  LIG1       -0.0047
     38 C          14.4537    1.1322    0.0136 C.ar    1  LIG1       -0.0607
     39 H          14.3162   -1.0137    0.0516 H       1  LIG1        0.0629
     40 C          12.3529    2.3179   -0.0124 C.ar    1  LIG1       -0.0530
     41 C          13.7515    2.3378   -0.0096 C.ar    1  LIG1       -0.0611
     42 H          11.7970    3.2518   -0.0300 H       1  LIG1        0.0624
     43 H          15.7537    1.1332    0.0167 H       1  LIG1        0.0618
     44 S          11.7670   -1.2775    0.0499 S.3     1  LIG1       -0.1420
     45 H          12.6703   -2.2262    0.0563 H       1  LIG1        0.1071
     46 H          14.3903    3.4699   -0.0282 H       1  LIG1        0.0618
@<TRIPOS>BOND
     1    23    19    1
     2    20    18    1
     3    34    30    1
     4    31    29    1
     5    42    40    1
     6    46    41    1
     7    18    19   ar
     8    18    15   ar
     9    19    16   ar
    10    29    30   ar
    11    29    26   ar
    12    30    27   ar
    13    40    41   ar
    14    40    37   ar
    15    41    38   ar
    16    12     7    1
    17     7     6   ar
    18     7     4   ar
    19    15     4    1
    20    15    13   ar
    21     6     8    1
    22     6     3   ar
    23     4     2   ar
    24     1     2   ar
    25     1     3   ar
    26     1    10    1
    27     2     5    1
    28     3     9    1
    29    10    11    1
    30    16    26    1
    31    16    14   ar
    32    26    24   ar
    33    27    37    1
    34    27    25   ar
    35    37    35   ar
    36    38    43    1
    37    38    36   ar
    38    13    14   ar
    39    13    21    1
    40    14    17    1
    41    24    25   ar
    42    24    32    1
    43    25    28    1
    44    35    36   ar
    45    35    44    1
    46    36    39    1
    47    21    22    1
    48    32    33    1
    49    44    45    1
