@<TRIPOS>MOLECULE
mol_data/noopt/geoms/mol2/4ga4ga4ga-4ga-.out
 46 49 0 0 0
SMALL
GASTEIGER

@<TRIPOS>ATOM
      1 C           0.0509    0.0309    0.0002 C.ar    1  LIG1        0.0053
      2 C           1.4592    0.0309    0.0002 C.ar    1  LIG1       -0.0408
      3 C          -0.6045    1.2792    0.0002 C.ar    1  LIG1       -0.0485
      4 C           2.1849    1.2200   -0.0004 C.ar    1  LIG1       -0.0158
      5 H           1.9850   -0.9213    0.0004 H       1  LIG1        0.0635
      6 C           0.1195    2.4666   -0.0004 C.ar    1  LIG1       -0.0602
      7 C           1.5181    2.4458   -0.0008 C.ar    1  LIG1       -0.0539
      8 H          -0.4090    3.4165   -0.0003 H       1  LIG1        0.0618
      9 H          -1.9035    1.3287    0.0016 H       1  LIG1        0.0628
     10 S          -0.5708   -1.1107    0.0005 S.3     1  LIG1       -0.1426
     11 H           0.3045   -2.0853    0.0006 H       1  LIG1        0.1071
     12 H           2.1896    3.5590   -0.0012 H       1  LIG1        0.0624
     13 C           4.1518   -0.0588    0.0002 C.ar    1  LIG1        0.0130
     14 C           5.5600   -0.0451    0.0016 C.ar    1  LIG1       -0.0402
     15 C           3.4843    1.1831   -0.0005 C.ar    1  LIG1       -0.0047
     16 C           6.2742    1.1510    0.0017 C.ar    1  LIG1       -0.0158
     17 H           6.0950   -0.9922    0.0024 H       1  LIG1        0.0635
     18 C           4.1968    2.3775   -0.0004 C.ar    1  LIG1       -0.0524
     19 C           5.5955    2.3702    0.0006 C.ar    1  LIG1       -0.0534
     20 H           3.6591    3.3222   -0.0009 H       1  LIG1        0.0624
     21 S           3.5412   -1.2064   -0.0001 S.3     1  LIG1       -0.1420
     22 H           4.4260   -2.1725   -0.0002 H       1  LIG1        0.1071
     23 H           6.2561    3.4899    0.0008 H       1  LIG1        0.0624
     24 C           8.2534   -0.1085    0.0256 C.ar    1  LIG1        0.0130
     25 C           9.6614   -0.0811    0.0275 C.ar    1  LIG1       -0.0402
     26 C           7.5739    1.1267    0.0029 C.ar    1  LIG1       -0.0047
     27 C          10.3639    1.1216    0.0070 C.ar    1  LIG1       -0.0158
     28 H          10.2055   -1.0228    0.0451 H       1  LIG1        0.0635
     29 C           8.2747    2.3277   -0.0175 C.ar    1  LIG1       -0.0524
     30 C           9.6735    2.3341   -0.0157 C.ar    1  LIG1       -0.0534
     31 H           7.7279    3.2670   -0.0348 H       1  LIG1        0.0624
     32 S           7.6539   -1.2618    0.0451 S.3     1  LIG1       -0.1420
     33 H           8.5479   -2.2192    0.0516 H       1  LIG1        0.1071
     34 H          10.3232    3.4599   -0.0347 H       1  LIG1        0.0624
     35 C          12.3552   -0.1185    0.0326 C.ar    1  LIG1        0.0124
     36 C          13.7629   -0.0775    0.0357 C.ar    1  LIG1       -0.0480
     37 C          11.6638    1.1100    0.0093 C.ar    1  LIG1       -0.0047
     38 C          14.4537    1.1320    0.0158 C.ar    1  LIG1       -0.0607
     39 H          14.3162   -1.0138    0.0537 H       1  LIG1        0.0629
     40 C          12.3529    2.3178   -0.0105 C.ar    1  LIG1       -0.0530
     41 C          13.7516    2.3377   -0.0075 C.ar    1  LIG1       -0.0611
     42 H          11.7970    3.2517   -0.0283 H       1  LIG1        0.0624
     43 H          15.7537    1.1330    0.0192 H       1  LIG1        0.0618
     44 S          11.7670   -1.2776    0.0516 S.3     1  LIG1       -0.1420
     45 H          12.6703   -2.2263    0.0580 H       1  LIG1        0.1071
     46 H          14.3904    3.4698   -0.0260 H       1  LIG1        0.0618
@<TRIPOS>BOND
     1    31    29    1
     2    34    30    1
     3    42    40    1
     4    46    41    1
     5    29    30   ar
     6    29    26   ar
     7    30    27   ar
     8    40    41   ar
     9    40    37   ar
    10    41    38   ar
    11    12     7    1
    12    20    18    1
    13     7     6   ar
    14     7     4   ar
    15    15    18   ar
    16    15     4    1
    17    15    13   ar
    18    18    19   ar
    19     6     8    1
    20     6     3   ar
    21     4     2   ar
    22    22    21    1
    23    21    13    1
    24     1     2   ar
    25     1     3   ar
    26     1    10    1
    27     2     5    1
    28     3     9    1
    29    13    14   ar
    30    10    11    1
    31    19    23    1
    32    19    16   ar
    33    14    16   ar
    34    14    17    1
    35    16    26    1
    36    26    24   ar
    37    27    37    1
    38    27    25   ar
    39    37    35   ar
    40    38    43    1
    41    38    36   ar
    42    24    25   ar
    43    24    32    1
    44    25    28    1
    45    35    36   ar
    46    35    44    1
    47    36    39    1
    48    32    33    1
    49    44    45    1
