@<TRIPOS>MOLECULE
mol_data/noopt/geoms/mol2/4ga4ga-.out
 24 25 0 0 0
SMALL
GASTEIGER

@<TRIPOS>ATOM
      1 C           0.0509    0.0309    0.0002 C.ar    1  LIG1        0.0053
      2 C           1.4592    0.0309    0.0002 C.ar    1  LIG1       -0.0408
      3 C          -0.6045    1.2792    0.0002 C.ar    1  LIG1       -0.0485
      4 C           2.1849    1.2200   -0.0004 C.ar    1  LIG1       -0.0158
      5 H           1.9850   -0.9213    0.0004 H       1  LIG1        0.0635
      6 C           0.1195    2.4666   -0.0004 C.ar    1  LIG1       -0.0602
      7 C           1.5181    2.4458   -0.0008 C.ar    1  LIG1       -0.0539
      8 H          -0.4090    3.4165   -0.0003 H       1  LIG1        0.0618
      9 H          -1.9035    1.3287    0.0016 H       1  LIG1        0.0628
     10 S          -0.5708   -1.1107    0.0005 S.3     1  LIG1       -0.1426
     11 H           0.3045   -2.0853    0.0006 H       1  LIG1        0.1071
     12 H           2.1896    3.5590   -0.0012 H       1  LIG1        0.0624
     13 C           4.1518   -0.0586    0.0215 C.ar    1  LIG1        0.0124
     14 C           5.5600   -0.0449    0.0220 C.ar    1  LIG1       -0.0480
     15 C           3.4843    1.1831   -0.0005 C.ar    1  LIG1       -0.0047
     16 C           6.2742    1.1510    0.0009 C.ar    1  LIG1       -0.0607
     17 H           6.0951   -0.9918    0.0390 H       1  LIG1        0.0629
     18 C           4.1968    2.3773   -0.0216 C.ar    1  LIG1       -0.0530
     19 C           5.5955    2.3701   -0.0212 C.ar    1  LIG1       -0.0611
     20 H           3.6591    3.3219   -0.0383 H       1  LIG1        0.0624
     21 H           7.5740    1.1267    0.0018 H       1  LIG1        0.0618
     22 S           3.5412   -1.2060    0.0416 S.3     1  LIG1       -0.1420
     23 H           4.4259   -2.1721    0.0483 H       1  LIG1        0.1071
     24 H           6.2561    3.4895   -0.0408 H       1  LIG1        0.0618
@<TRIPOS>BOND
     1    24    19    1
     2    20    18    1
     3    18    19   ar
     4    18    15   ar
     5    19    16   ar
     6    12     7    1
     7     7     4   ar
     8     7     6   ar
     9    15     4    1
    10    15    13   ar
    11     4     2   ar
    12     6     8    1
    13     6     3   ar
    14     1     3   ar
    15     1     2   ar
    16     1    10    1
    17     3     9    1
    18     2     5    1
    19    10    11    1
    20    16    21    1
    21    16    14   ar
    22    13    14   ar
    23    13    22    1
    24    14    17    1
    25    22    23    1
