@<TRIPOS>MOLECULE
mol_data/noopt/geoms/mol2/4ga4ga4ga4ga-.out
 46 49 0 0 0
SMALL
GASTEIGER

@<TRIPOS>ATOM
      1 C           0.0509    0.0309    0.0002 C.ar    1  LIG1        0.0053
      2 C           1.4592    0.0309    0.0002 C.ar    1  LIG1       -0.0408
      3 C          -0.6045    1.2792    0.0002 C.ar    1  LIG1       -0.0485
      4 C           2.1849    1.2200   -0.0004 C.ar    1  LIG1       -0.0158
      5 H           1.9850   -0.9213    0.0004 H       1  LIG1        0.0635
      6 C           0.1195    2.4666   -0.0004 C.ar    1  LIG1       -0.0602
      7 C           1.5181    2.4458   -0.0008 C.ar    1  LIG1       -0.0539
      8 H          -0.4090    3.4165   -0.0003 H       1  LIG1        0.0618
      9 H          -1.9035    1.3287    0.0016 H       1  LIG1        0.0628
     10 S          -0.5708   -1.1107    0.0005 S.3     1  LIG1       -0.1426
     11 H           0.3045   -2.0853    0.0006 H       1  LIG1        0.1071
     12 H           2.1896    3.5590   -0.0012 H       1  LIG1        0.0624
     13 C           4.1518   -0.0588    0.0002 C.ar    1  LIG1        0.0130
     14 C           5.5600   -0.0451    0.0016 C.ar    1  LIG1       -0.0402
     15 C           3.4843    1.1831   -0.0005 C.ar    1  LIG1       -0.0047
     16 C           6.2742    1.1510    0.0017 C.ar    1  LIG1       -0.0158
     17 H           6.0950   -0.9922    0.0024 H       1  LIG1        0.0635
     18 C           4.1968    2.3775   -0.0004 C.ar    1  LIG1       -0.0524
     19 C           5.5955    2.3702    0.0006 C.ar    1  LIG1       -0.0534
     20 H           3.6591    3.3222   -0.0009 H       1  LIG1        0.0624
     21 S           3.5412   -1.2064   -0.0001 S.3     1  LIG1       -0.1420
     22 H           4.4260   -2.1725   -0.0002 H       1  LIG1        0.1071
     23 H           6.2561    3.4899    0.0008 H       1  LIG1        0.0624
     24 C           8.2534   -0.1087    0.0043 C.ar    1  LIG1        0.0130
     25 C           9.6614   -0.0814    0.0071 C.ar    1  LIG1       -0.0402
     26 C           7.5739    1.1267    0.0029 C.ar    1  LIG1       -0.0047
     27 C          10.3639    1.1216    0.0079 C.ar    1  LIG1       -0.0158
     28 H          10.2056   -1.0232    0.0084 H       1  LIG1        0.0635
     29 C           8.2747    2.3279    0.0036 C.ar    1  LIG1       -0.0524
     30 C           9.6734    2.3342    0.0060 C.ar    1  LIG1       -0.0534
     31 H           7.7279    3.2674    0.0026 H       1  LIG1        0.0624
     32 S           7.6539   -1.2622    0.0034 S.3     1  LIG1       -0.1420
     33 H           8.5480   -2.2196    0.0032 H       1  LIG1        0.1071
     34 H          10.3232    3.4602    0.0069 H       1  LIG1        0.0624
     35 C          12.3552   -0.1186    0.0338 C.ar    1  LIG1        0.0124
     36 C          13.7629   -0.0776    0.0371 C.ar    1  LIG1       -0.0480
     37 C          11.6638    1.1099    0.0104 C.ar    1  LIG1       -0.0047
     38 C          14.4537    1.1319    0.0173 C.ar    1  LIG1       -0.0607
     39 H          14.3161   -1.0139    0.0552 H       1  LIG1        0.0629
     40 C          12.3530    2.3177   -0.0094 C.ar    1  LIG1       -0.0530
     41 C          13.7516    2.3376   -0.0062 C.ar    1  LIG1       -0.0611
     42 H          11.7971    3.2517   -0.0272 H       1  LIG1        0.0624
     43 H          15.7537    1.1329    0.0209 H       1  LIG1        0.0618
     44 S          11.7669   -1.2777    0.0527 S.3     1  LIG1       -0.1420
     45 H          12.6702   -2.2264    0.0591 H       1  LIG1        0.1071
     46 H          14.3904    3.4697   -0.0245 H       1  LIG1        0.0618
@<TRIPOS>BOND
     1    42    40    1
     2    46    41    1
     3    40    41   ar
     4    40    37   ar
     5    41    38   ar
     6    12     7    1
     7    20    18    1
     8     7     4   ar
     9     7     6   ar
    10    15    18   ar
    11    15     4    1
    12    15    13   ar
    13    18    19   ar
    14     4     2   ar
    15     6     8    1
    16     6     3   ar
    17    22    21    1
    18    21    13    1
    19     1     2   ar
    20     1     3   ar
    21     1    10    1
    22     2     5    1
    23     3     9    1
    24    13    14   ar
    25    10    11    1
    26    19    23    1
    27    19    16   ar
    28    14    16   ar
    29    14    17    1
    30    16    26    1
    31    31    29    1
    32    26    29   ar
    33    26    24   ar
    34    33    32    1
    35    32    24    1
    36    29    30   ar
    37    24    25   ar
    38    30    34    1
    39    30    27   ar
    40    25    27   ar
    41    25    28    1
    42    27    37    1
    43    37    35   ar
    44    38    43    1
    45    38    36   ar
    46    35    36   ar
    47    35    44    1
    48    36    39    1
    49    44    45    1
