@<TRIPOS>MOLECULE
mol_data/noopt/geoms/mol2/4gd4gd-4gd4gd-.out
 50 53 0 0 0
SMALL
GASTEIGER

@<TRIPOS>ATOM
      1 C           0.0509    0.0309    0.0002 C.ar    1  LIG1        0.0054
      2 C           1.4592    0.0309    0.0002 C.ar    1  LIG1       -0.0396
      3 C          -0.6045    1.2792    0.0002 C.ar    1  LIG1       -0.0473
      4 C           2.1849    1.2200   -0.0004 C.ar    1  LIG1        0.0016
      5 H           1.9850   -0.9213    0.0004 H       1  LIG1        0.0635
      6 C           0.1195    2.4666   -0.0004 C.ar    1  LIG1       -0.0427
      7 C           1.5181    2.4458   -0.0008 C.ar    1  LIG1        0.0596
      8 H          -0.4090    3.4165   -0.0003 H       1  LIG1        0.0631
      9 H          -1.9035    1.3287    0.0016 H       1  LIG1        0.0629
     10 S          -0.5708   -1.1107    0.0005 S.3     1  LIG1       -0.1426
     11 H           0.3045   -2.0853    0.0006 H       1  LIG1        0.1071
     12 N           2.7818    4.5408   -0.0016 N.1     1  LIG1       -0.1909
     13 C           2.1896    3.5590   -0.0012 C.1     1  LIG1        0.0998
     14 C           4.1518   -0.0586    0.0215 C.ar    1  LIG1        0.0131
     15 C           5.5600   -0.0449    0.0220 C.ar    1  LIG1       -0.0390
     16 C           3.4843    1.1831   -0.0005 C.ar    1  LIG1       -0.0022
     17 C           6.2742    1.1510    0.0009 C.ar    1  LIG1        0.0016
     18 H           6.0951   -0.9918    0.0390 H       1  LIG1        0.0635
     19 C           4.1968    2.3773   -0.0216 C.ar    1  LIG1       -0.0350
     20 C           5.5955    2.3701   -0.0212 C.ar    1  LIG1        0.0601
     21 H           3.6591    3.3219   -0.0383 H       1  LIG1        0.0637
     22 S           3.5412   -1.2060    0.0416 S.3     1  LIG1       -0.1420
     23 H           4.4259   -2.1721    0.0483 H       1  LIG1        0.1071
     24 N           6.8388    4.4769   -0.0581 N.1     1  LIG1       -0.1908
     25 C           6.2561    3.4895   -0.0408 C.1     1  LIG1        0.0998
     26 C           8.2534   -0.1086    0.0031 C.ar    1  LIG1        0.0131
     27 C           9.6614   -0.0813    0.0057 C.ar    1  LIG1       -0.0390
     28 C           7.5739    1.1267    0.0018 C.ar    1  LIG1       -0.0022
     29 C          10.3639    1.1217    0.0064 C.ar    1  LIG1        0.0016
     30 H          10.2056   -1.0231    0.0069 H       1  LIG1        0.0635
     31 C           8.2747    2.3280    0.0025 C.ar    1  LIG1       -0.0350
     32 C           9.6734    2.3343    0.0046 C.ar    1  LIG1        0.0601
     33 H           7.7278    3.2674    0.0016 H       1  LIG1        0.0637
     34 S           7.6540   -1.2621    0.0024 S.3     1  LIG1       -0.1420
     35 H           8.5481   -2.2195    0.0021 H       1  LIG1        0.1071
     36 N          10.8962    4.4534    0.0061 N.1     1  LIG1       -0.1908
     37 C          10.3232    3.4603    0.0054 C.1     1  LIG1        0.0998
     38 C          12.3552   -0.1185    0.0320 C.ar    1  LIG1        0.0126
     39 C          13.7629   -0.0774    0.0350 C.ar    1  LIG1       -0.0468
     40 C          11.6638    1.1100    0.0086 C.ar    1  LIG1       -0.0022
     41 C          14.4537    1.1321    0.0151 C.ar    1  LIG1       -0.0433
     42 H          14.3162   -1.0138    0.0530 H       1  LIG1        0.0629
     43 C          12.3529    2.3178   -0.0112 C.ar    1  LIG1       -0.0355
     44 C          13.7516    2.3378   -0.0082 C.ar    1  LIG1        0.0524
     45 H          11.7970    3.2518   -0.0289 H       1  LIG1        0.0637
     46 H          15.7537    1.1331    0.0185 H       1  LIG1        0.0631
     47 S          11.7670   -1.2775    0.0509 S.3     1  LIG1       -0.1420
     48 H          12.6703   -2.2263    0.0573 H       1  LIG1        0.1071
     49 N          14.9538    4.4683   -0.0430 N.1     1  LIG1       -0.1909
     50 C          14.3904    3.4698   -0.0267 C.1     1  LIG1        0.0992
@<TRIPOS>BOND
     1    24    25    3
     2    49    50    3
     3    25    20    1
     4    21    19    1
     5    45    43    1
     6    50    44    1
     7    19    20   ar
     8    19    16   ar
     9    20    17   ar
    10    43    44   ar
    11    43    40   ar
    12    44    41   ar
    13    12    13    3
    14    13     7    1
    15     7     6   ar
    16     7     4   ar
    17    16     4    1
    18    16    14   ar
    19     6     8    1
    20     6     3   ar
    21     4     2   ar
    22     1     2   ar
    23     1     3   ar
    24     1    10    1
    25     2     5    1
    26     3     9    1
    27    10    11    1
    28    17    28    1
    29    17    15   ar
    30    33    31    1
    31    28    31   ar
    32    28    26   ar
    33    35    34    1
    34    34    26    1
    35    31    32   ar
    36    26    27   ar
    37    32    37    1
    38    32    29   ar
    39    37    36    3
    40    27    29   ar
    41    27    30    1
    42    29    40    1
    43    40    38   ar
    44    41    46    1
    45    41    39   ar
    46    14    15   ar
    47    14    22    1
    48    15    18    1
    49    38    39   ar
    50    38    47    1
    51    39    42    1
    52    22    23    1
    53    47    48    1
