@<TRIPOS>MOLECULE
mol_data/noopt/geoms/mol2/4gd4gd-4gd-4gd-.out
 50 53 0 0 0
SMALL
GASTEIGER

@<TRIPOS>ATOM
      1 C           0.0509    0.0309    0.0002 C.ar    1  LIG1        0.0054
      2 C           1.4592    0.0309    0.0002 C.ar    1  LIG1       -0.0396
      3 C          -0.6045    1.2792    0.0002 C.ar    1  LIG1       -0.0473
      4 C           2.1849    1.2200   -0.0004 C.ar    1  LIG1        0.0016
      5 H           1.9850   -0.9213    0.0004 H       1  LIG1        0.0635
      6 C           0.1195    2.4666   -0.0004 C.ar    1  LIG1       -0.0427
      7 C           1.5181    2.4458   -0.0008 C.ar    1  LIG1        0.0596
      8 H          -0.4090    3.4165   -0.0003 H       1  LIG1        0.0631
      9 H          -1.9035    1.3287    0.0016 H       1  LIG1        0.0629
     10 S          -0.5708   -1.1107    0.0005 S.3     1  LIG1       -0.1426
     11 H           0.3045   -2.0853    0.0006 H       1  LIG1        0.1071
     12 N           2.7818    4.5408   -0.0016 N.1     1  LIG1       -0.1909
     13 C           2.1896    3.5590   -0.0012 C.1     1  LIG1        0.0998
     14 C           4.1518   -0.0586    0.0215 C.ar    1  LIG1        0.0131
     15 C           5.5600   -0.0449    0.0220 C.ar    1  LIG1       -0.0390
     16 C           3.4843    1.1831   -0.0005 C.ar    1  LIG1       -0.0022
     17 C           6.2742    1.1510    0.0009 C.ar    1  LIG1        0.0016
     18 H           6.0951   -0.9918    0.0390 H       1  LIG1        0.0635
     19 C           4.1968    2.3773   -0.0216 C.ar    1  LIG1       -0.0350
     20 C           5.5955    2.3701   -0.0212 C.ar    1  LIG1        0.0601
     21 H           3.6591    3.3219   -0.0383 H       1  LIG1        0.0637
     22 S           3.5412   -1.2060    0.0416 S.3     1  LIG1       -0.1420
     23 H           4.4259   -2.1721    0.0483 H       1  LIG1        0.1071
     24 N           6.8388    4.4769   -0.0581 N.1     1  LIG1       -0.1908
     25 C           6.2561    3.4895   -0.0408 C.1     1  LIG1        0.0998
     26 C           8.2534   -0.1084    0.0245 C.ar    1  LIG1        0.0131
     27 C           9.6614   -0.0811    0.0261 C.ar    1  LIG1       -0.0390
     28 C           7.5739    1.1267    0.0018 C.ar    1  LIG1       -0.0022
     29 C          10.3639    1.1217    0.0055 C.ar    1  LIG1        0.0016
     30 H          10.2056   -1.0227    0.0436 H       1  LIG1        0.0635
     31 C           8.2747    2.3278   -0.0187 C.ar    1  LIG1       -0.0350
     32 C           9.6734    2.3341   -0.0171 C.ar    1  LIG1        0.0601
     33 H           7.7279    3.2671   -0.0358 H       1  LIG1        0.0637
     34 S           7.6539   -1.2617    0.0440 S.3     1  LIG1       -0.1420
     35 H           8.5480   -2.2192    0.0506 H       1  LIG1        0.1071
     36 N          10.8963    4.4529   -0.0531 N.1     1  LIG1       -0.1908
     37 C          10.3232    3.4600   -0.0362 C.1     1  LIG1        0.0998
     38 C          12.3552   -0.1184    0.0308 C.ar    1  LIG1        0.0126
     39 C          13.7629   -0.0774    0.0336 C.ar    1  LIG1       -0.0468
     40 C          11.6638    1.1101    0.0076 C.ar    1  LIG1       -0.0022
     41 C          14.4537    1.1322    0.0136 C.ar    1  LIG1       -0.0433
     42 H          14.3162   -1.0137    0.0516 H       1  LIG1        0.0629
     43 C          12.3529    2.3179   -0.0124 C.ar    1  LIG1       -0.0355
     44 C          13.7515    2.3378   -0.0096 C.ar    1  LIG1        0.0524
     45 H          11.7970    3.2518   -0.0300 H       1  LIG1        0.0637
     46 H          15.7537    1.1332    0.0167 H       1  LIG1        0.0631
     47 S          11.7670   -1.2775    0.0499 S.3     1  LIG1       -0.1420
     48 H          12.6703   -2.2262    0.0563 H       1  LIG1        0.1071
     49 N          14.9537    4.4684   -0.0446 N.1     1  LIG1       -0.1909
     50 C          14.3903    3.4699   -0.0282 C.1     1  LIG1        0.0992
@<TRIPOS>BOND
     1    24    25    3
     2    36    37    3
     3    49    50    3
     4    25    20    1
     5    21    19    1
     6    37    32    1
     7    33    31    1
     8    45    43    1
     9    50    44    1
    10    19    20   ar
    11    19    16   ar
    12    20    17   ar
    13    31    32   ar
    14    31    28   ar
    15    32    29   ar
    16    43    44   ar
    17    43    40   ar
    18    44    41   ar
    19    12    13    3
    20    13     7    1
    21     7     6   ar
    22     7     4   ar
    23    16     4    1
    24    16    14   ar
    25     6     8    1
    26     6     3   ar
    27     4     2   ar
    28     1     2   ar
    29     1     3   ar
    30     1    10    1
    31     2     5    1
    32     3     9    1
    33    10    11    1
    34    17    28    1
    35    17    15   ar
    36    28    26   ar
    37    29    40    1
    38    29    27   ar
    39    40    38   ar
    40    41    46    1
    41    41    39   ar
    42    14    15   ar
    43    14    22    1
    44    15    18    1
    45    26    27   ar
    46    26    34    1
    47    27    30    1
    48    38    39   ar
    49    38    47    1
    50    39    42    1
    51    22    23    1
    52    34    35    1
    53    47    48    1
