@<TRIPOS>MOLECULE
mol_data/noopt/geoms/mol2/4gd4gd4gd4gd-.out
 50 53 0 0 0
SMALL
GASTEIGER

@<TRIPOS>ATOM
      1 C           0.0509    0.0309    0.0002 C.ar    1  LIG1        0.0054
      2 C           1.4592    0.0309    0.0002 C.ar    1  LIG1       -0.0396
      3 C          -0.6045    1.2792    0.0002 C.ar    1  LIG1       -0.0473
      4 C           2.1849    1.2200   -0.0004 C.ar    1  LIG1        0.0016
      5 H           1.9850   -0.9213    0.0004 H       1  LIG1        0.0635
      6 C           0.1195    2.4666   -0.0004 C.ar    1  LIG1       -0.0427
      7 C           1.5181    2.4458   -0.0008 C.ar    1  LIG1        0.0596
      8 H          -0.4090    3.4165   -0.0003 H       1  LIG1        0.0631
      9 H          -1.9035    1.3287    0.0016 H       1  LIG1        0.0629
     10 S          -0.5708   -1.1107    0.0005 S.3     1  LIG1       -0.1426
     11 H           0.3045   -2.0853    0.0006 H       1  LIG1        0.1071
     12 N           2.7818    4.5408   -0.0016 N.1     1  LIG1       -0.1909
     13 C           2.1896    3.5590   -0.0012 C.1     1  LIG1        0.0998
     14 C           4.1518   -0.0588    0.0002 C.ar    1  LIG1        0.0131
     15 C           5.5600   -0.0451    0.0016 C.ar    1  LIG1       -0.0390
     16 C           3.4843    1.1831   -0.0005 C.ar    1  LIG1       -0.0022
     17 C           6.2742    1.1510    0.0017 C.ar    1  LIG1        0.0016
     18 H           6.0950   -0.9922    0.0024 H       1  LIG1        0.0635
     19 C           4.1968    2.3775   -0.0004 C.ar    1  LIG1       -0.0350
     20 C           5.5955    2.3702    0.0006 C.ar    1  LIG1        0.0601
     21 H           3.6591    3.3222   -0.0009 H       1  LIG1        0.0637
     22 S           3.5412   -1.2064   -0.0001 S.3     1  LIG1       -0.1420
     23 H           4.4260   -2.1725   -0.0002 H       1  LIG1        0.1071
     24 N           6.8388    4.4774    0.0010 N.1     1  LIG1       -0.1908
     25 C           6.2561    3.4899    0.0008 C.1     1  LIG1        0.0998
     26 C           8.2534   -0.1087    0.0043 C.ar    1  LIG1        0.0131
     27 C           9.6614   -0.0814    0.0071 C.ar    1  LIG1       -0.0390
     28 C           7.5739    1.1267    0.0029 C.ar    1  LIG1       -0.0022
     29 C          10.3639    1.1216    0.0079 C.ar    1  LIG1        0.0016
     30 H          10.2056   -1.0232    0.0084 H       1  LIG1        0.0635
     31 C           8.2747    2.3279    0.0036 C.ar    1  LIG1       -0.0350
     32 C           9.6734    2.3342    0.0060 C.ar    1  LIG1        0.0601
     33 H           7.7279    3.2674    0.0026 H       1  LIG1        0.0637
     34 S           7.6539   -1.2622    0.0034 S.3     1  LIG1       -0.1420
     35 H           8.5480   -2.2196    0.0032 H       1  LIG1        0.1071
     36 N          10.8963    4.4533    0.0077 N.1     1  LIG1       -0.1908
     37 C          10.3232    3.4602    0.0069 C.1     1  LIG1        0.0998
     38 C          12.3552   -0.1186    0.0338 C.ar    1  LIG1        0.0126
     39 C          13.7629   -0.0776    0.0371 C.ar    1  LIG1       -0.0468
     40 C          11.6638    1.1099    0.0104 C.ar    1  LIG1       -0.0022
     41 C          14.4537    1.1319    0.0173 C.ar    1  LIG1       -0.0433
     42 H          14.3161   -1.0139    0.0552 H       1  LIG1        0.0629
     43 C          12.3530    2.3177   -0.0094 C.ar    1  LIG1       -0.0355
     44 C          13.7516    2.3376   -0.0062 C.ar    1  LIG1        0.0524
     45 H          11.7971    3.2517   -0.0272 H       1  LIG1        0.0637
     46 H          15.7537    1.1329    0.0209 H       1  LIG1        0.0631
     47 S          11.7669   -1.2777    0.0527 S.3     1  LIG1       -0.1420
     48 H          12.6702   -2.2264    0.0591 H       1  LIG1        0.1071
     49 N          14.9539    4.4681   -0.0407 N.1     1  LIG1       -0.1909
     50 C          14.3904    3.4697   -0.0245 C.1     1  LIG1        0.0992
@<TRIPOS>BOND
     1    49    50    3
     2    45    43    1
     3    50    44    1
     4    43    44   ar
     5    43    40   ar
     6    44    41   ar
     7    12    13    3
     8    13     7    1
     9    21    19    1
    10     7     6   ar
    11     7     4   ar
    12    16    19   ar
    13    16     4    1
    14    16    14   ar
    15    19    20   ar
    16     6     8    1
    17     6     3   ar
    18     4     2   ar
    19    23    22    1
    20    22    14    1
    21     1     2   ar
    22     1     3   ar
    23     1    10    1
    24     2     5    1
    25     3     9    1
    26    14    15   ar
    27    10    11    1
    28    20    25    1
    29    20    17   ar
    30    25    24    3
    31    15    17   ar
    32    15    18    1
    33    17    28    1
    34    33    31    1
    35    28    31   ar
    36    28    26   ar
    37    35    34    1
    38    34    26    1
    39    31    32   ar
    40    26    27   ar
    41    32    37    1
    42    32    29   ar
    43    37    36    3
    44    27    29   ar
    45    27    30    1
    46    29    40    1
    47    40    38   ar
    48    41    46    1
    49    41    39   ar
    50    38    39   ar
    51    38    47    1
    52    39    42    1
    53    47    48    1
