@<TRIPOS>MOLECULE
mol_data/noopt/geoms/mol2/4ge4ge-4ge-4ge.out
 54 57 0 0 0
SMALL
GASTEIGER

@<TRIPOS>ATOM
      1 C           0.0509    0.0309    0.0002 C.ar    1  LIG1        0.0054
      2 C           1.4592    0.0309    0.0002 C.ar    1  LIG1       -0.0396
      3 C          -0.6045    1.2792    0.0002 C.ar    1  LIG1       -0.0474
      4 C           2.1849    1.2200   -0.0004 C.ar    1  LIG1       -0.0004
      5 H           1.9850   -0.9213    0.0004 H       1  LIG1        0.0635
      6 C           0.1195    2.4666   -0.0004 C.ar    1  LIG1       -0.0447
      7 C           1.5181    2.4458   -0.0008 C.ar    1  LIG1        0.0325
      8 H          -0.4090    3.4165   -0.0003 H       1  LIG1        0.0630
      9 H          -1.9035    1.3287    0.0016 H       1  LIG1        0.0629
     10 S          -0.5708   -1.1107    0.0005 S.3     1  LIG1       -0.1426
     11 H           0.3045   -2.0853    0.0006 H       1  LIG1        0.1071
     12 C           2.1896    3.5590   -0.0012 C.1     1  LIG1       -0.0691
     13 C           2.8100    4.5875   -0.0016 C.1     1  LIG1       -0.1139
     14 H           3.3627    5.5037   -0.0019 H       1  LIG1        0.1232
     15 C           4.1518   -0.0586    0.0215 C.ar    1  LIG1        0.0131
     16 C           5.5600   -0.0449    0.0220 C.ar    1  LIG1       -0.0390
     17 C           3.4843    1.1831   -0.0005 C.ar    1  LIG1       -0.0023
     18 C           6.2742    1.1510    0.0009 C.ar    1  LIG1       -0.0004
     19 H           6.0951   -0.9918    0.0390 H       1  LIG1        0.0635
     20 C           4.1968    2.3773   -0.0216 C.ar    1  LIG1       -0.0369
     21 C           5.5955    2.3701   -0.0212 C.ar    1  LIG1        0.0330
     22 H           3.6591    3.3219   -0.0383 H       1  LIG1        0.0636
     23 S           3.5412   -1.2060    0.0416 S.3     1  LIG1       -0.1420
     24 H           4.4259   -2.1721    0.0483 H       1  LIG1        0.1071
     25 C           6.2561    3.4895   -0.0408 C.1     1  LIG1       -0.0690
     26 C           6.8666    4.5239   -0.0589 C.1     1  LIG1       -0.1139
     27 H           7.4103    5.4453   -0.0751 H       1  LIG1        0.1232
     28 C           8.2534   -0.1084    0.0245 C.ar    1  LIG1        0.0131
     29 C           9.6614   -0.0811    0.0261 C.ar    1  LIG1       -0.0390
     30 C           7.5739    1.1267    0.0018 C.ar    1  LIG1       -0.0023
     31 C          10.3639    1.1217    0.0055 C.ar    1  LIG1       -0.0004
     32 H          10.2056   -1.0227    0.0436 H       1  LIG1        0.0635
     33 C           8.2747    2.3278   -0.0187 C.ar    1  LIG1       -0.0369
     34 C           9.6734    2.3341   -0.0171 C.ar    1  LIG1        0.0330
     35 H           7.7279    3.2671   -0.0358 H       1  LIG1        0.0636
     36 S           7.6539   -1.2617    0.0440 S.3     1  LIG1       -0.1420
     37 H           8.5480   -2.2192    0.0506 H       1  LIG1        0.1071
     38 C          10.3232    3.4600   -0.0362 C.1     1  LIG1       -0.0690
     39 C          10.9236    4.5002   -0.0539 C.1     1  LIG1       -0.1139
     40 H          11.4584    5.4268   -0.0696 H       1  LIG1        0.1232
     41 C          12.3553   -0.1186    0.0095 C.ar    1  LIG1        0.0126
     42 C          13.7630   -0.0776    0.0132 C.ar    1  LIG1       -0.0468
     43 C          11.6638    1.1101    0.0076 C.ar    1  LIG1       -0.0024
     44 C          14.4537    1.1322    0.0144 C.ar    1  LIG1       -0.0453
     45 H          14.3163   -1.0141    0.0149 H       1  LIG1        0.0629
     46 C          12.3529    2.3181    0.0088 C.ar    1  LIG1       -0.0375
     47 C          13.7515    2.3380    0.0121 C.ar    1  LIG1        0.0253
     48 H          11.7970    3.2522    0.0074 H       1  LIG1        0.0636
     49 H          15.7537    1.1331    0.0178 H       1  LIG1        0.0630
     50 S          11.7671   -1.2779    0.0082 S.3     1  LIG1       -0.1420
     51 H          12.6704   -2.2265    0.0078 H       1  LIG1        0.1071
     52 C          14.3903    3.4703    0.0134 C.1     1  LIG1       -0.0696
     53 C          14.9805    4.5165    0.0146 C.1     1  LIG1       -0.1139
     54 H          15.5062    5.4484    0.0156 H       1  LIG1        0.1232
@<TRIPOS>BOND
     1    27    26    1
     2    40    39    1
     3    26    25    3
     4    39    38    3
     5    25    21    1
     6    22    20    1
     7    38    34    1
     8    35    33    1
     9    20    21   ar
    10    20    17   ar
    11    21    18   ar
    12    33    34   ar
    13    33    30   ar
    14    34    31   ar
    15    14    13    1
    16    13    12    3
    17    12     7    1
    18     7     6   ar
    19     7     4   ar
    20    17     4    1
    21    17    15   ar
    22     6     8    1
    23     6     3   ar
    24     4     2   ar
    25     1     3   ar
    26     1     2   ar
    27     1    10    1
    28     3     9    1
    29     2     5    1
    30    10    11    1
    31    18    30    1
    32    18    16   ar
    33    30    28   ar
    34    31    43    1
    35    31    29   ar
    36    48    46    1
    37    43    46   ar
    38    43    41   ar
    39    51    50    1
    40    50    41    1
    41    46    47   ar
    42    41    42   ar
    43    47    52    1
    44    47    44   ar
    45    42    44   ar
    46    42    45    1
    47    52    53    3
    48    44    49    1
    49    53    54    1
    50    15    16   ar
    51    15    23    1
    52    16    19    1
    53    28    29   ar
    54    28    36    1
    55    29    32    1
    56    23    24    1
    57    36    37    1
