@<TRIPOS>MOLECULE
mol_data/noopt/geoms/mol2/4ge4ge4ge-4ge-.out
 54 57 0 0 0
SMALL
GASTEIGER

@<TRIPOS>ATOM
      1 C           0.0509    0.0309    0.0002 C.ar    1  LIG1        0.0054
      2 C           1.4592    0.0309    0.0002 C.ar    1  LIG1       -0.0396
      3 C          -0.6045    1.2792    0.0002 C.ar    1  LIG1       -0.0474
      4 C           2.1849    1.2200   -0.0004 C.ar    1  LIG1       -0.0004
      5 H           1.9850   -0.9213    0.0004 H       1  LIG1        0.0635
      6 C           0.1195    2.4666   -0.0004 C.ar    1  LIG1       -0.0447
      7 C           1.5181    2.4458   -0.0008 C.ar    1  LIG1        0.0325
      8 H          -0.4090    3.4165   -0.0003 H       1  LIG1        0.0630
      9 H          -1.9035    1.3287    0.0016 H       1  LIG1        0.0629
     10 S          -0.5708   -1.1107    0.0005 S.3     1  LIG1       -0.1426
     11 H           0.3045   -2.0853    0.0006 H       1  LIG1        0.1071
     12 C           2.1896    3.5590   -0.0012 C.1     1  LIG1       -0.0691
     13 C           2.8100    4.5875   -0.0016 C.1     1  LIG1       -0.1139
     14 H           3.3627    5.5037   -0.0019 H       1  LIG1        0.1232
     15 C           4.1518   -0.0588    0.0002 C.ar    1  LIG1        0.0131
     16 C           5.5600   -0.0451    0.0016 C.ar    1  LIG1       -0.0390
     17 C           3.4843    1.1831   -0.0005 C.ar    1  LIG1       -0.0023
     18 C           6.2742    1.1510    0.0017 C.ar    1  LIG1       -0.0004
     19 H           6.0950   -0.9922    0.0024 H       1  LIG1        0.0635
     20 C           4.1968    2.3775   -0.0004 C.ar    1  LIG1       -0.0369
     21 C           5.5955    2.3702    0.0006 C.ar    1  LIG1        0.0330
     22 H           3.6591    3.3222   -0.0009 H       1  LIG1        0.0636
     23 S           3.5412   -1.2064   -0.0001 S.3     1  LIG1       -0.1420
     24 H           4.4260   -2.1725   -0.0002 H       1  LIG1        0.1071
     25 C           6.2561    3.4899    0.0008 C.1     1  LIG1       -0.0690
     26 C           6.8666    4.5244    0.0010 C.1     1  LIG1       -0.1139
     27 H           7.4103    5.4459    0.0012 H       1  LIG1        0.1232
     28 C           8.2534   -0.1085    0.0256 C.ar    1  LIG1        0.0131
     29 C           9.6614   -0.0811    0.0275 C.ar    1  LIG1       -0.0390
     30 C           7.5739    1.1267    0.0029 C.ar    1  LIG1       -0.0023
     31 C          10.3639    1.1216    0.0070 C.ar    1  LIG1       -0.0004
     32 H          10.2055   -1.0228    0.0451 H       1  LIG1        0.0635
     33 C           8.2747    2.3277   -0.0175 C.ar    1  LIG1       -0.0369
     34 C           9.6735    2.3341   -0.0157 C.ar    1  LIG1        0.0330
     35 H           7.7279    3.2670   -0.0348 H       1  LIG1        0.0636
     36 S           7.6539   -1.2618    0.0451 S.3     1  LIG1       -0.1420
     37 H           8.5479   -2.2192    0.0516 H       1  LIG1        0.1071
     38 C          10.3232    3.4599   -0.0347 C.1     1  LIG1       -0.0690
     39 C          10.9236    4.5001   -0.0523 C.1     1  LIG1       -0.1139
     40 H          11.4584    5.4267   -0.0679 H       1  LIG1        0.1232
     41 C          12.3552   -0.1185    0.0326 C.ar    1  LIG1        0.0126
     42 C          13.7629   -0.0775    0.0357 C.ar    1  LIG1       -0.0468
     43 C          11.6638    1.1100    0.0093 C.ar    1  LIG1       -0.0024
     44 C          14.4537    1.1320    0.0158 C.ar    1  LIG1       -0.0453
     45 H          14.3162   -1.0138    0.0537 H       1  LIG1        0.0629
     46 C          12.3529    2.3178   -0.0105 C.ar    1  LIG1       -0.0375
     47 C          13.7516    2.3377   -0.0075 C.ar    1  LIG1        0.0253
     48 H          11.7970    3.2517   -0.0283 H       1  LIG1        0.0636
     49 H          15.7537    1.1330    0.0192 H       1  LIG1        0.0630
     50 S          11.7670   -1.2776    0.0516 S.3     1  LIG1       -0.1420
     51 H          12.6703   -2.2263    0.0580 H       1  LIG1        0.1071
     52 C          14.3904    3.4698   -0.0260 C.1     1  LIG1       -0.0696
     53 C          14.9806    4.5158   -0.0431 C.1     1  LIG1       -0.1139
     54 H          15.5064    5.4476   -0.0583 H       1  LIG1        0.1232
@<TRIPOS>BOND
     1    40    39    1
     2    54    53    1
     3    39    38    3
     4    53    52    3
     5    35    33    1
     6    38    34    1
     7    48    46    1
     8    52    47    1
     9    33    34   ar
    10    33    30   ar
    11    34    31   ar
    12    46    47   ar
    13    46    43   ar
    14    47    44   ar
    15    14    13    1
    16    13    12    3
    17    12     7    1
    18    22    20    1
    19     7     6   ar
    20     7     4   ar
    21    17    20   ar
    22    17     4    1
    23    17    15   ar
    24    20    21   ar
    25     6     8    1
    26     6     3   ar
    27     4     2   ar
    28    24    23    1
    29    23    15    1
    30     1     2   ar
    31     1     3   ar
    32     1    10    1
    33     2     5    1
    34     3     9    1
    35    15    16   ar
    36    10    11    1
    37    21    25    1
    38    21    18   ar
    39    25    26    3
    40    26    27    1
    41    16    18   ar
    42    16    19    1
    43    18    30    1
    44    30    28   ar
    45    31    43    1
    46    31    29   ar
    47    43    41   ar
    48    44    49    1
    49    44    42   ar
    50    28    29   ar
    51    28    36    1
    52    29    32    1
    53    41    42   ar
    54    41    50    1
    55    42    45    1
    56    36    37    1
    57    50    51    1
