@<TRIPOS>MOLECULE
mol_data/noopt/geoms/mol2/4ge4ge4ge4ge-.out
 54 57 0 0 0
SMALL
GASTEIGER

@<TRIPOS>ATOM
      1 C           0.0509    0.0309    0.0002 C.ar    1  LIG1        0.0054
      2 C           1.4592    0.0309    0.0002 C.ar    1  LIG1       -0.0396
      3 C          -0.6045    1.2792    0.0002 C.ar    1  LIG1       -0.0474
      4 C           2.1849    1.2200   -0.0004 C.ar    1  LIG1       -0.0004
      5 H           1.9850   -0.9213    0.0004 H       1  LIG1        0.0635
      6 C           0.1195    2.4666   -0.0004 C.ar    1  LIG1       -0.0447
      7 C           1.5181    2.4458   -0.0008 C.ar    1  LIG1        0.0325
      8 H          -0.4090    3.4165   -0.0003 H       1  LIG1        0.0630
      9 H          -1.9035    1.3287    0.0016 H       1  LIG1        0.0629
     10 S          -0.5708   -1.1107    0.0005 S.3     1  LIG1       -0.1426
     11 H           0.3045   -2.0853    0.0006 H       1  LIG1        0.1071
     12 C           2.1896    3.5590   -0.0012 C.1     1  LIG1       -0.0691
     13 C           2.8100    4.5875   -0.0016 C.1     1  LIG1       -0.1139
     14 H           3.3627    5.5037   -0.0019 H       1  LIG1        0.1232
     15 C           4.1518   -0.0588    0.0002 C.ar    1  LIG1        0.0131
     16 C           5.5600   -0.0451    0.0016 C.ar    1  LIG1       -0.0390
     17 C           3.4843    1.1831   -0.0005 C.ar    1  LIG1       -0.0023
     18 C           6.2742    1.1510    0.0017 C.ar    1  LIG1       -0.0004
     19 H           6.0950   -0.9922    0.0024 H       1  LIG1        0.0635
     20 C           4.1968    2.3775   -0.0004 C.ar    1  LIG1       -0.0369
     21 C           5.5955    2.3702    0.0006 C.ar    1  LIG1        0.0330
     22 H           3.6591    3.3222   -0.0009 H       1  LIG1        0.0636
     23 S           3.5412   -1.2064   -0.0001 S.3     1  LIG1       -0.1420
     24 H           4.4260   -2.1725   -0.0002 H       1  LIG1        0.1071
     25 C           6.2561    3.4899    0.0008 C.1     1  LIG1       -0.0690
     26 C           6.8666    4.5244    0.0010 C.1     1  LIG1       -0.1139
     27 H           7.4103    5.4459    0.0012 H       1  LIG1        0.1232
     28 C           8.2534   -0.1087    0.0043 C.ar    1  LIG1        0.0131
     29 C           9.6614   -0.0814    0.0071 C.ar    1  LIG1       -0.0390
     30 C           7.5739    1.1267    0.0029 C.ar    1  LIG1       -0.0023
     31 C          10.3639    1.1216    0.0079 C.ar    1  LIG1       -0.0004
     32 H          10.2056   -1.0232    0.0084 H       1  LIG1        0.0635
     33 C           8.2747    2.3279    0.0036 C.ar    1  LIG1       -0.0369
     34 C           9.6734    2.3342    0.0060 C.ar    1  LIG1        0.0330
     35 H           7.7279    3.2674    0.0026 H       1  LIG1        0.0636
     36 S           7.6539   -1.2622    0.0034 S.3     1  LIG1       -0.1420
     37 H           8.5480   -2.2196    0.0032 H       1  LIG1        0.1071
     38 C          10.3232    3.4602    0.0069 C.1     1  LIG1       -0.0690
     39 C          10.9236    4.5006    0.0077 C.1     1  LIG1       -0.1139
     40 H          11.4584    5.4274    0.0084 H       1  LIG1        0.1232
     41 C          12.3552   -0.1186    0.0338 C.ar    1  LIG1        0.0126
     42 C          13.7629   -0.0776    0.0371 C.ar    1  LIG1       -0.0468
     43 C          11.6638    1.1099    0.0104 C.ar    1  LIG1       -0.0024
     44 C          14.4537    1.1319    0.0173 C.ar    1  LIG1       -0.0453
     45 H          14.3161   -1.0139    0.0552 H       1  LIG1        0.0629
     46 C          12.3530    2.3177   -0.0094 C.ar    1  LIG1       -0.0375
     47 C          13.7516    2.3376   -0.0062 C.ar    1  LIG1        0.0253
     48 H          11.7971    3.2517   -0.0272 H       1  LIG1        0.0636
     49 H          15.7537    1.1329    0.0209 H       1  LIG1        0.0630
     50 S          11.7669   -1.2777    0.0527 S.3     1  LIG1       -0.1420
     51 H          12.6702   -2.2264    0.0591 H       1  LIG1        0.1071
     52 C          14.3904    3.4697   -0.0245 C.1     1  LIG1       -0.0696
     53 C          14.9807    4.5157   -0.0415 C.1     1  LIG1       -0.1139
     54 H          15.5065    5.4474   -0.0566 H       1  LIG1        0.1232
@<TRIPOS>BOND
     1    54    53    1
     2    53    52    3
     3    48    46    1
     4    52    47    1
     5    46    47   ar
     6    46    43   ar
     7    47    44   ar
     8    14    13    1
     9    13    12    3
    10    12     7    1
    11    22    20    1
    12     7     6   ar
    13     7     4   ar
    14    17    20   ar
    15    17     4    1
    16    17    15   ar
    17    20    21   ar
    18     6     8    1
    19     6     3   ar
    20     4     2   ar
    21    24    23    1
    22    23    15    1
    23     1     2   ar
    24     1     3   ar
    25     1    10    1
    26     2     5    1
    27     3     9    1
    28    15    16   ar
    29    10    11    1
    30    21    25    1
    31    21    18   ar
    32    25    26    3
    33    26    27    1
    34    16    18   ar
    35    16    19    1
    36    18    30    1
    37    35    33    1
    38    30    33   ar
    39    30    28   ar
    40    37    36    1
    41    36    28    1
    42    33    34   ar
    43    28    29   ar
    44    34    38    1
    45    34    31   ar
    46    38    39    3
    47    29    31   ar
    48    29    32    1
    49    39    40    1
    50    31    43    1
    51    43    41   ar
    52    44    49    1
    53    44    42   ar
    54    41    42   ar
    55    41    50    1
    56    42    45    1
    57    50    51    1
