@<TRIPOS>MOLECULE
mol_data/noopt/geoms/mol2/4ge4ge-4ge.out
 41 43 0 0 0
SMALL
GASTEIGER

@<TRIPOS>ATOM
      1 C           0.0509    0.0309    0.0002 C.ar    1  LIG1        0.0054
      2 C           1.4592    0.0309    0.0002 C.ar    1  LIG1       -0.0396
      3 C          -0.6045    1.2792    0.0002 C.ar    1  LIG1       -0.0474
      4 C           2.1849    1.2200   -0.0004 C.ar    1  LIG1       -0.0004
      5 H           1.9850   -0.9213    0.0004 H       1  LIG1        0.0635
      6 C           0.1195    2.4666   -0.0004 C.ar    1  LIG1       -0.0447
      7 C           1.5181    2.4458   -0.0008 C.ar    1  LIG1        0.0325
      8 H          -0.4090    3.4165   -0.0003 H       1  LIG1        0.0630
      9 H          -1.9035    1.3287    0.0016 H       1  LIG1        0.0629
     10 S          -0.5708   -1.1107    0.0005 S.3     1  LIG1       -0.1426
     11 H           0.3045   -2.0853    0.0006 H       1  LIG1        0.1071
     12 C           2.1896    3.5590   -0.0012 C.1     1  LIG1       -0.0691
     13 C           2.8100    4.5875   -0.0016 C.1     1  LIG1       -0.1139
     14 H           3.3627    5.5037   -0.0019 H       1  LIG1        0.1232
     15 C           4.1518   -0.0586    0.0215 C.ar    1  LIG1        0.0131
     16 C           5.5600   -0.0449    0.0220 C.ar    1  LIG1       -0.0390
     17 C           3.4843    1.1831   -0.0005 C.ar    1  LIG1       -0.0023
     18 C           6.2742    1.1510    0.0009 C.ar    1  LIG1       -0.0004
     19 H           6.0951   -0.9918    0.0390 H       1  LIG1        0.0635
     20 C           4.1968    2.3773   -0.0216 C.ar    1  LIG1       -0.0369
     21 C           5.5955    2.3701   -0.0212 C.ar    1  LIG1        0.0330
     22 H           3.6591    3.3219   -0.0383 H       1  LIG1        0.0636
     23 S           3.5412   -1.2060    0.0416 S.3     1  LIG1       -0.1420
     24 H           4.4259   -2.1721    0.0483 H       1  LIG1        0.1071
     25 C           6.2561    3.4895   -0.0408 C.1     1  LIG1       -0.0690
     26 C           6.8666    4.5239   -0.0589 C.1     1  LIG1       -0.1139
     27 H           7.4103    5.4453   -0.0751 H       1  LIG1        0.1232
     28 C           8.2534   -0.1086    0.0031 C.ar    1  LIG1        0.0126
     29 C           9.6614   -0.0813    0.0057 C.ar    1  LIG1       -0.0468
     30 C           7.5739    1.1267    0.0018 C.ar    1  LIG1       -0.0024
     31 C          10.3639    1.1217    0.0064 C.ar    1  LIG1       -0.0453
     32 H          10.2056   -1.0231    0.0069 H       1  LIG1        0.0629
     33 C           8.2747    2.3280    0.0025 C.ar    1  LIG1       -0.0375
     34 C           9.6734    2.3343    0.0046 C.ar    1  LIG1        0.0253
     35 H           7.7278    3.2674    0.0016 H       1  LIG1        0.0636
     36 H          11.6639    1.1100    0.0086 H       1  LIG1        0.0630
     37 S           7.6540   -1.2621    0.0024 S.3     1  LIG1       -0.1420
     38 H           8.5481   -2.2195    0.0021 H       1  LIG1        0.1071
     39 C          10.3232    3.4603    0.0054 C.1     1  LIG1       -0.0696
     40 C          10.9235    4.5007    0.0061 C.1     1  LIG1       -0.1139
     41 H          11.4583    5.4275    0.0067 H       1  LIG1        0.1232
@<TRIPOS>BOND
     1    27    26    1
     2    26    25    3
     3    25    21    1
     4    22    20    1
     5    20    21   ar
     6    20    17   ar
     7    21    18   ar
     8    14    13    1
     9    13    12    3
    10    12     7    1
    11     7     4   ar
    12     7     6   ar
    13    17     4    1
    14    17    15   ar
    15     4     2   ar
    16     6     8    1
    17     6     3   ar
    18     1     3   ar
    19     1     2   ar
    20     1    10    1
    21     3     9    1
    22     2     5    1
    23    10    11    1
    24    18    30    1
    25    18    16   ar
    26    35    33    1
    27    30    33   ar
    28    30    28   ar
    29    38    37    1
    30    37    28    1
    31    33    34   ar
    32    28    29   ar
    33    34    39    1
    34    34    31   ar
    35    39    40    3
    36    29    31   ar
    37    29    32    1
    38    40    41    1
    39    31    36    1
    40    15    16   ar
    41    15    23    1
    42    16    19    1
    43    23    24    1
