@<TRIPOS>MOLECULE
mol_data/noopt/geoms/mol2/4ge4ge4ge-4ge.out
 54 57 0 0 0
SMALL
GASTEIGER

@<TRIPOS>ATOM
      1 C           0.0509    0.0309    0.0002 C.ar    1  LIG1        0.0054
      2 C           1.4592    0.0309    0.0002 C.ar    1  LIG1       -0.0396
      3 C          -0.6045    1.2792    0.0002 C.ar    1  LIG1       -0.0474
      4 C           2.1849    1.2200   -0.0004 C.ar    1  LIG1       -0.0004
      5 H           1.9850   -0.9213    0.0004 H       1  LIG1        0.0635
      6 C           0.1195    2.4666   -0.0004 C.ar    1  LIG1       -0.0447
      7 C           1.5181    2.4458   -0.0008 C.ar    1  LIG1        0.0325
      8 H          -0.4090    3.4165   -0.0003 H       1  LIG1        0.0630
      9 H          -1.9035    1.3287    0.0016 H       1  LIG1        0.0629
     10 S          -0.5708   -1.1107    0.0005 S.3     1  LIG1       -0.1426
     11 H           0.3045   -2.0853    0.0006 H       1  LIG1        0.1071
     12 C           2.1896    3.5590   -0.0012 C.1     1  LIG1       -0.0691
     13 C           2.8100    4.5875   -0.0016 C.1     1  LIG1       -0.1139
     14 H           3.3627    5.5037   -0.0019 H       1  LIG1        0.1232
     15 C           4.1518   -0.0588    0.0002 C.ar    1  LIG1        0.0131
     16 C           5.5600   -0.0451    0.0016 C.ar    1  LIG1       -0.0390
     17 C           3.4843    1.1831   -0.0005 C.ar    1  LIG1       -0.0023
     18 C           6.2742    1.1510    0.0017 C.ar    1  LIG1       -0.0004
     19 H           6.0950   -0.9922    0.0024 H       1  LIG1        0.0635
     20 C           4.1968    2.3775   -0.0004 C.ar    1  LIG1       -0.0369
     21 C           5.5955    2.3702    0.0006 C.ar    1  LIG1        0.0330
     22 H           3.6591    3.3222   -0.0009 H       1  LIG1        0.0636
     23 S           3.5412   -1.2064   -0.0001 S.3     1  LIG1       -0.1420
     24 H           4.4260   -2.1725   -0.0002 H       1  LIG1        0.1071
     25 C           6.2561    3.4899    0.0008 C.1     1  LIG1       -0.0690
     26 C           6.8666    4.5244    0.0010 C.1     1  LIG1       -0.1139
     27 H           7.4103    5.4459    0.0012 H       1  LIG1        0.1232
     28 C           8.2534   -0.1085    0.0256 C.ar    1  LIG1        0.0131
     29 C           9.6614   -0.0811    0.0275 C.ar    1  LIG1       -0.0390
     30 C           7.5739    1.1267    0.0029 C.ar    1  LIG1       -0.0023
     31 C          10.3639    1.1216    0.0070 C.ar    1  LIG1       -0.0004
     32 H          10.2055   -1.0228    0.0451 H       1  LIG1        0.0635
     33 C           8.2747    2.3277   -0.0175 C.ar    1  LIG1       -0.0369
     34 C           9.6735    2.3341   -0.0157 C.ar    1  LIG1        0.0330
     35 H           7.7279    3.2670   -0.0348 H       1  LIG1        0.0636
     36 S           7.6539   -1.2618    0.0451 S.3     1  LIG1       -0.1420
     37 H           8.5479   -2.2192    0.0516 H       1  LIG1        0.1071
     38 C          10.3232    3.4599   -0.0347 C.1     1  LIG1       -0.0690
     39 C          10.9236    4.5001   -0.0523 C.1     1  LIG1       -0.1139
     40 H          11.4584    5.4267   -0.0679 H       1  LIG1        0.1232
     41 C          12.3552   -0.1187    0.0113 C.ar    1  LIG1        0.0126
     42 C          13.7629   -0.0777    0.0153 C.ar    1  LIG1       -0.0468
     43 C          11.6638    1.1100    0.0093 C.ar    1  LIG1       -0.0024
     44 C          14.4537    1.1320    0.0166 C.ar    1  LIG1       -0.0453
     45 H          14.3162   -1.0142    0.0171 H       1  LIG1        0.0629
     46 C          12.3529    2.3179    0.0106 C.ar    1  LIG1       -0.0375
     47 C          13.7515    2.3379    0.0142 C.ar    1  LIG1        0.0253
     48 H          11.7970    3.2520    0.0092 H       1  LIG1        0.0636
     49 H          15.7537    1.1329    0.0202 H       1  LIG1        0.0630
     50 S          11.7670   -1.2780    0.0100 S.3     1  LIG1       -0.1420
     51 H          12.6704   -2.2267    0.0095 H       1  LIG1        0.1071
     52 C          14.3903    3.4701    0.0156 C.1     1  LIG1       -0.0696
     53 C          14.9805    4.5163    0.0169 C.1     1  LIG1       -0.1139
     54 H          15.5063    5.4482    0.0180 H       1  LIG1        0.1232
@<TRIPOS>BOND
     1    40    39    1
     2    39    38    3
     3    35    33    1
     4    38    34    1
     5    33    34   ar
     6    33    30   ar
     7    34    31   ar
     8    14    13    1
     9    13    12    3
    10    12     7    1
    11    22    20    1
    12     7     4   ar
    13     7     6   ar
    14    17    20   ar
    15    17     4    1
    16    17    15   ar
    17    20    21   ar
    18     4     2   ar
    19     6     8    1
    20     6     3   ar
    21    24    23    1
    22    23    15    1
    23     2     1   ar
    24     2     5    1
    25     3     1   ar
    26     3     9    1
    27     1    10    1
    28    15    16   ar
    29    10    11    1
    30    21    25    1
    31    21    18   ar
    32    25    26    3
    33    26    27    1
    34    16    18   ar
    35    16    19    1
    36    18    30    1
    37    30    28   ar
    38    31    43    1
    39    31    29   ar
    40    48    46    1
    41    43    46   ar
    42    43    41   ar
    43    51    50    1
    44    50    41    1
    45    46    47   ar
    46    41    42   ar
    47    47    52    1
    48    47    44   ar
    49    42    44   ar
    50    42    45    1
    51    52    53    3
    52    44    49    1
    53    53    54    1
    54    28    29   ar
    55    28    36    1
    56    29    32    1
    57    36    37    1
