@<TRIPOS>MOLECULE
mol_data/noopt/geoms/mol2/4ge4ge4ge-.out
 41 43 0 0 0
SMALL
GASTEIGER

@<TRIPOS>ATOM
      1 C           0.0509    0.0309    0.0002 C.ar    1  LIG1        0.0054
      2 C           1.4592    0.0309    0.0002 C.ar    1  LIG1       -0.0396
      3 C          -0.6045    1.2792    0.0002 C.ar    1  LIG1       -0.0474
      4 C           2.1849    1.2200   -0.0004 C.ar    1  LIG1       -0.0004
      5 H           1.9850   -0.9213    0.0004 H       1  LIG1        0.0635
      6 C           0.1195    2.4666   -0.0004 C.ar    1  LIG1       -0.0447
      7 C           1.5181    2.4458   -0.0008 C.ar    1  LIG1        0.0325
      8 H          -0.4090    3.4165   -0.0003 H       1  LIG1        0.0630
      9 H          -1.9035    1.3287    0.0016 H       1  LIG1        0.0629
     10 S          -0.5708   -1.1107    0.0005 S.3     1  LIG1       -0.1426
     11 H           0.3045   -2.0853    0.0006 H       1  LIG1        0.1071
     12 C           2.1896    3.5590   -0.0012 C.1     1  LIG1       -0.0691
     13 C           2.8100    4.5875   -0.0016 C.1     1  LIG1       -0.1139
     14 H           3.3627    5.5037   -0.0019 H       1  LIG1        0.1232
     15 C           4.1518   -0.0588    0.0002 C.ar    1  LIG1        0.0131
     16 C           5.5600   -0.0451    0.0016 C.ar    1  LIG1       -0.0390
     17 C           3.4843    1.1831   -0.0005 C.ar    1  LIG1       -0.0023
     18 C           6.2742    1.1510    0.0017 C.ar    1  LIG1       -0.0004
     19 H           6.0950   -0.9922    0.0024 H       1  LIG1        0.0635
     20 C           4.1968    2.3775   -0.0004 C.ar    1  LIG1       -0.0369
     21 C           5.5955    2.3702    0.0006 C.ar    1  LIG1        0.0330
     22 H           3.6591    3.3222   -0.0009 H       1  LIG1        0.0636
     23 S           3.5412   -1.2064   -0.0001 S.3     1  LIG1       -0.1420
     24 H           4.4260   -2.1725   -0.0002 H       1  LIG1        0.1071
     25 C           6.2561    3.4899    0.0008 C.1     1  LIG1       -0.0690
     26 C           6.8666    4.5244    0.0010 C.1     1  LIG1       -0.1139
     27 H           7.4103    5.4459    0.0012 H       1  LIG1        0.1232
     28 C           8.2534   -0.1085    0.0256 C.ar    1  LIG1        0.0126
     29 C           9.6614   -0.0811    0.0275 C.ar    1  LIG1       -0.0468
     30 C           7.5739    1.1267    0.0029 C.ar    1  LIG1       -0.0024
     31 C          10.3639    1.1216    0.0070 C.ar    1  LIG1       -0.0453
     32 H          10.2055   -1.0228    0.0451 H       1  LIG1        0.0629
     33 C           8.2747    2.3277   -0.0175 C.ar    1  LIG1       -0.0375
     34 C           9.6735    2.3341   -0.0157 C.ar    1  LIG1        0.0253
     35 H           7.7279    3.2670   -0.0348 H       1  LIG1        0.0636
     36 H          11.6639    1.1100    0.0093 H       1  LIG1        0.0630
     37 S           7.6539   -1.2618    0.0451 S.3     1  LIG1       -0.1420
     38 H           8.5479   -2.2192    0.0516 H       1  LIG1        0.1071
     39 C          10.3232    3.4599   -0.0347 C.1     1  LIG1       -0.0696
     40 C          10.9236    4.5001   -0.0523 C.1     1  LIG1       -0.1139
     41 H          11.4584    5.4267   -0.0679 H       1  LIG1        0.1232
@<TRIPOS>BOND
     1    41    40    1
     2    40    39    3
     3    35    33    1
     4    39    34    1
     5    33    34   ar
     6    33    30   ar
     7    34    31   ar
     8    14    13    1
     9    13    12    3
    10    12     7    1
    11    22    20    1
    12     7     6   ar
    13     7     4   ar
    14    17    20   ar
    15    17     4    1
    16    17    15   ar
    17    20    21   ar
    18     6     8    1
    19     6     3   ar
    20     4     2   ar
    21    24    23    1
    22    23    15    1
    23     1     2   ar
    24     1     3   ar
    25     1    10    1
    26     2     5    1
    27     3     9    1
    28    15    16   ar
    29    10    11    1
    30    21    25    1
    31    21    18   ar
    32    25    26    3
    33    26    27    1
    34    16    18   ar
    35    16    19    1
    36    18    30    1
    37    30    28   ar
    38    31    36    1
    39    31    29   ar
    40    28    29   ar
    41    28    37    1
    42    29    32    1
    43    37    38    1
