@<TRIPOS>MOLECULE
mol_data/noopt/geoms/mol2/4ge4ge-4ge4ge-.out
 54 57 0 0 0
SMALL
GASTEIGER

@<TRIPOS>ATOM
      1 C           0.0509    0.0309    0.0002 C.ar    1  LIG1        0.0054
      2 C           1.4592    0.0309    0.0002 C.ar    1  LIG1       -0.0396
      3 C          -0.6045    1.2792    0.0002 C.ar    1  LIG1       -0.0474
      4 C           2.1849    1.2200   -0.0004 C.ar    1  LIG1       -0.0004
      5 H           1.9850   -0.9213    0.0004 H       1  LIG1        0.0635
      6 C           0.1195    2.4666   -0.0004 C.ar    1  LIG1       -0.0447
      7 C           1.5181    2.4458   -0.0008 C.ar    1  LIG1        0.0325
      8 H          -0.4090    3.4165   -0.0003 H       1  LIG1        0.0630
      9 H          -1.9035    1.3287    0.0016 H       1  LIG1        0.0629
     10 S          -0.5708   -1.1107    0.0005 S.3     1  LIG1       -0.1426
     11 H           0.3045   -2.0853    0.0006 H       1  LIG1        0.1071
     12 C           2.1896    3.5590   -0.0012 C.1     1  LIG1       -0.0691
     13 C           2.8100    4.5875   -0.0016 C.1     1  LIG1       -0.1139
     14 H           3.3627    5.5037   -0.0019 H       1  LIG1        0.1232
     15 C           4.1518   -0.0586    0.0215 C.ar    1  LIG1        0.0131
     16 C           5.5600   -0.0449    0.0220 C.ar    1  LIG1       -0.0390
     17 C           3.4843    1.1831   -0.0005 C.ar    1  LIG1       -0.0023
     18 C           6.2742    1.1510    0.0009 C.ar    1  LIG1       -0.0004
     19 H           6.0951   -0.9918    0.0390 H       1  LIG1        0.0635
     20 C           4.1968    2.3773   -0.0216 C.ar    1  LIG1       -0.0369
     21 C           5.5955    2.3701   -0.0212 C.ar    1  LIG1        0.0330
     22 H           3.6591    3.3219   -0.0383 H       1  LIG1        0.0636
     23 S           3.5412   -1.2060    0.0416 S.3     1  LIG1       -0.1420
     24 H           4.4259   -2.1721    0.0483 H       1  LIG1        0.1071
     25 C           6.2561    3.4895   -0.0408 C.1     1  LIG1       -0.0690
     26 C           6.8666    4.5239   -0.0589 C.1     1  LIG1       -0.1139
     27 H           7.4103    5.4453   -0.0751 H       1  LIG1        0.1232
     28 C           8.2534   -0.1086    0.0031 C.ar    1  LIG1        0.0131
     29 C           9.6614   -0.0813    0.0057 C.ar    1  LIG1       -0.0390
     30 C           7.5739    1.1267    0.0018 C.ar    1  LIG1       -0.0023
     31 C          10.3639    1.1217    0.0064 C.ar    1  LIG1       -0.0004
     32 H          10.2056   -1.0231    0.0069 H       1  LIG1        0.0635
     33 C           8.2747    2.3280    0.0025 C.ar    1  LIG1       -0.0369
     34 C           9.6734    2.3343    0.0046 C.ar    1  LIG1        0.0330
     35 H           7.7278    3.2674    0.0016 H       1  LIG1        0.0636
     36 S           7.6540   -1.2621    0.0024 S.3     1  LIG1       -0.1420
     37 H           8.5481   -2.2195    0.0021 H       1  LIG1        0.1071
     38 C          10.3232    3.4603    0.0054 C.1     1  LIG1       -0.0690
     39 C          10.9235    4.5007    0.0061 C.1     1  LIG1       -0.1139
     40 H          11.4583    5.4275    0.0067 H       1  LIG1        0.1232
     41 C          12.3552   -0.1185    0.0320 C.ar    1  LIG1        0.0126
     42 C          13.7629   -0.0774    0.0350 C.ar    1  LIG1       -0.0468
     43 C          11.6638    1.1100    0.0086 C.ar    1  LIG1       -0.0024
     44 C          14.4537    1.1321    0.0151 C.ar    1  LIG1       -0.0453
     45 H          14.3162   -1.0138    0.0530 H       1  LIG1        0.0629
     46 C          12.3529    2.3178   -0.0112 C.ar    1  LIG1       -0.0375
     47 C          13.7516    2.3378   -0.0082 C.ar    1  LIG1        0.0253
     48 H          11.7970    3.2518   -0.0289 H       1  LIG1        0.0636
     49 H          15.7537    1.1331    0.0185 H       1  LIG1        0.0630
     50 S          11.7670   -1.2775    0.0509 S.3     1  LIG1       -0.1420
     51 H          12.6703   -2.2263    0.0573 H       1  LIG1        0.1071
     52 C          14.3904    3.4698   -0.0267 C.1     1  LIG1       -0.0696
     53 C          14.9806    4.5159   -0.0438 C.1     1  LIG1       -0.1139
     54 H          15.5064    5.4476   -0.0590 H       1  LIG1        0.1232
@<TRIPOS>BOND
     1    27    26    1
     2    54    53    1
     3    26    25    3
     4    53    52    3
     5    25    21    1
     6    22    20    1
     7    48    46    1
     8    52    47    1
     9    20    21   ar
    10    20    17   ar
    11    21    18   ar
    12    46    47   ar
    13    46    43   ar
    14    47    44   ar
    15    14    13    1
    16    13    12    3
    17    12     7    1
    18     7     6   ar
    19     7     4   ar
    20    17     4    1
    21    17    15   ar
    22     6     8    1
    23     6     3   ar
    24     4     2   ar
    25     1     2   ar
    26     1     3   ar
    27     1    10    1
    28     2     5    1
    29     3     9    1
    30    10    11    1
    31    18    30    1
    32    18    16   ar
    33    35    33    1
    34    30    33   ar
    35    30    28   ar
    36    37    36    1
    37    36    28    1
    38    33    34   ar
    39    28    29   ar
    40    34    38    1
    41    34    31   ar
    42    38    39    3
    43    29    31   ar
    44    29    32    1
    45    39    40    1
    46    31    43    1
    47    43    41   ar
    48    44    49    1
    49    44    42   ar
    50    15    16   ar
    51    15    23    1
    52    16    19    1
    53    41    42   ar
    54    41    50    1
    55    42    45    1
    56    23    24    1
    57    50    51    1
