@<TRIPOS>MOLECULE
mol_data/noopt/geoms/mol2/4gf4gf4gf-4gf-.out
 50 53 0 0 0
SMALL
GASTEIGER

@<TRIPOS>ATOM
      1 C           0.0509    0.0309    0.0002 C.ar    1  LIG1        0.0055
      2 C           1.4592    0.0309    0.0002 C.ar    1  LIG1       -0.0373
      3 C          -0.6045    1.2792    0.0002 C.ar    1  LIG1       -0.0451
      4 C           2.1849    1.2200   -0.0004 C.ar    1  LIG1        0.0257
      5 H           1.9850   -0.9213    0.0004 H       1  LIG1        0.0636
      6 C           0.1195    2.4666   -0.0004 C.ar    1  LIG1       -0.0185
      7 C           1.5181    2.4458   -0.0008 C.ar    1  LIG1        0.1246
      8 H          -0.4090    3.4165   -0.0003 H       1  LIG1        0.0654
      9 H          -1.9035    1.3287    0.0016 H       1  LIG1        0.0630
     10 S          -0.5708   -1.1107    0.0005 S.3     1  LIG1       -0.1426
     11 H           0.3045   -2.0853    0.0006 H       1  LIG1        0.1071
     12 O           2.1896    3.5590   -0.0012 O.3     1  LIG1       -0.5062
     13 H           1.5802    4.3008   -0.0013 H       1  LIG1        0.2922
     14 C           4.1518   -0.0588    0.0002 C.ar    1  LIG1        0.0134
     15 C           5.5600   -0.0451    0.0016 C.ar    1  LIG1       -0.0367
     16 C           3.4843    1.1831   -0.0005 C.ar    1  LIG1        0.0023
     17 C           6.2742    1.1510    0.0017 C.ar    1  LIG1        0.0258
     18 H           6.0950   -0.9922    0.0024 H       1  LIG1        0.0636
     19 C           4.1968    2.3775   -0.0004 C.ar    1  LIG1       -0.0107
     20 C           5.5955    2.3702    0.0006 C.ar    1  LIG1        0.1252
     21 H           3.6591    3.3222   -0.0009 H       1  LIG1        0.0661
     22 S           3.5412   -1.2064   -0.0001 S.3     1  LIG1       -0.1420
     23 H           4.4260   -2.1725   -0.0002 H       1  LIG1        0.1071
     24 O           6.2562    3.4899    0.0008 O.3     1  LIG1       -0.5061
     25 H           5.6396    4.2257    0.0009 H       1  LIG1        0.2922
     26 C           8.2534   -0.1085    0.0256 C.ar    1  LIG1        0.0134
     27 C           9.6614   -0.0811    0.0275 C.ar    1  LIG1       -0.0367
     28 C           7.5739    1.1267    0.0029 C.ar    1  LIG1        0.0023
     29 C          10.3639    1.1216    0.0070 C.ar    1  LIG1        0.0258
     30 H          10.2055   -1.0228    0.0451 H       1  LIG1        0.0636
     31 C           8.2747    2.3277   -0.0175 C.ar    1  LIG1       -0.0107
     32 C           9.6735    2.3341   -0.0157 C.ar    1  LIG1        0.1252
     33 H           7.7279    3.2670   -0.0348 H       1  LIG1        0.0661
     34 S           7.6539   -1.2618    0.0451 S.3     1  LIG1       -0.1420
     35 H           8.5479   -2.2192    0.0516 H       1  LIG1        0.1071
     36 O          10.3233    3.4599   -0.0347 O.3     1  LIG1       -0.5061
     37 H           9.6996    4.1897   -0.0394 H       1  LIG1        0.2922
     38 C          12.3552   -0.1185    0.0326 C.ar    1  LIG1        0.0128
     39 C          13.7629   -0.0775    0.0357 C.ar    1  LIG1       -0.0445
     40 C          11.6638    1.1100    0.0093 C.ar    1  LIG1        0.0022
     41 C          14.4537    1.1320    0.0158 C.ar    1  LIG1       -0.0191
     42 H          14.3162   -1.0138    0.0537 H       1  LIG1        0.0630
     43 C          12.3529    2.3178   -0.0105 C.ar    1  LIG1       -0.0113
     44 C          13.7516    2.3377   -0.0075 C.ar    1  LIG1        0.1175
     45 H          11.7970    3.2517   -0.0283 H       1  LIG1        0.0660
     46 H          15.7537    1.1330    0.0192 H       1  LIG1        0.0654
     47 S          11.7670   -1.2776    0.0516 S.3     1  LIG1       -0.1420
     48 H          12.6703   -2.2263    0.0580 H       1  LIG1        0.1071
     49 O          14.3904    3.4698   -0.0260 O.3     1  LIG1       -0.5067
     50 H          13.7597    4.1936   -0.0306 H       1  LIG1        0.2921
@<TRIPOS>BOND
     1    37    36    1
     2    33    31    1
     3    36    32    1
     4    50    49    1
     5    45    43    1
     6    49    44    1
     7    31    32   ar
     8    31    28   ar
     9    32    29   ar
    10    43    44   ar
    11    43    40   ar
    12    44    41   ar
    13    13    12    1
    14    12     7    1
    15    21    19    1
    16     7     6   ar
    17     7     4   ar
    18    16    19   ar
    19    16     4    1
    20    16    14   ar
    21    19    20   ar
    22     6     8    1
    23     6     3   ar
    24     4     2   ar
    25    23    22    1
    26    22    14    1
    27     1     2   ar
    28     1     3   ar
    29     1    10    1
    30     2     5    1
    31     3     9    1
    32    14    15   ar
    33    10    11    1
    34    20    24    1
    35    20    17   ar
    36    24    25    1
    37    15    17   ar
    38    15    18    1
    39    17    28    1
    40    28    26   ar
    41    29    40    1
    42    29    27   ar
    43    40    38   ar
    44    41    46    1
    45    41    39   ar
    46    26    27   ar
    47    26    34    1
    48    27    30    1
    49    38    39   ar
    50    38    47    1
    51    39    42    1
    52    34    35    1
    53    47    48    1
