@<TRIPOS>MOLECULE
mol_data/noopt/geoms/mol2/4gf4gf.out
 26 27 0 0 0
SMALL
GASTEIGER

@<TRIPOS>ATOM
      1 C           0.0509    0.0309    0.0002 C.ar    1  LIG1        0.0055
      2 C           1.4592    0.0309    0.0002 C.ar    1  LIG1       -0.0373
      3 C          -0.6045    1.2792    0.0002 C.ar    1  LIG1       -0.0451
      4 C           2.1849    1.2200   -0.0004 C.ar    1  LIG1        0.0257
      5 H           1.9850   -0.9213    0.0004 H       1  LIG1        0.0636
      6 C           0.1195    2.4666   -0.0004 C.ar    1  LIG1       -0.0185
      7 C           1.5181    2.4458   -0.0008 C.ar    1  LIG1        0.1246
      8 H          -0.4090    3.4165   -0.0003 H       1  LIG1        0.0654
      9 H          -1.9035    1.3287    0.0016 H       1  LIG1        0.0630
     10 S          -0.5708   -1.1107    0.0005 S.3     1  LIG1       -0.1426
     11 H           0.3045   -2.0853    0.0006 H       1  LIG1        0.1071
     12 O           2.1896    3.5590   -0.0012 O.3     1  LIG1       -0.5062
     13 H           1.5802    4.3008   -0.0013 H       1  LIG1        0.2922
     14 C           4.1518   -0.0588    0.0002 C.ar    1  LIG1        0.0128
     15 C           5.5600   -0.0451    0.0016 C.ar    1  LIG1       -0.0445
     16 C           3.4843    1.1831   -0.0005 C.ar    1  LIG1        0.0022
     17 C           6.2742    1.1510    0.0017 C.ar    1  LIG1       -0.0191
     18 H           6.0950   -0.9922    0.0024 H       1  LIG1        0.0630
     19 C           4.1968    2.3775   -0.0004 C.ar    1  LIG1       -0.0113
     20 C           5.5955    2.3702    0.0006 C.ar    1  LIG1        0.1175
     21 H           3.6591    3.3222   -0.0009 H       1  LIG1        0.0660
     22 H           7.5740    1.1267    0.0029 H       1  LIG1        0.0654
     23 S           3.5412   -1.2064   -0.0001 S.3     1  LIG1       -0.1420
     24 H           4.4260   -2.1725   -0.0002 H       1  LIG1        0.1071
     25 O           6.2562    3.4899    0.0008 O.3     1  LIG1       -0.5067
     26 H           5.6396    4.2257    0.0009 H       1  LIG1        0.2921
@<TRIPOS>BOND
     1    13    12    1
     2    12     7    1
     3    21    19    1
     4     7     4   ar
     5     7     6   ar
     6    16    19   ar
     7    16     4    1
     8    16    14   ar
     9    19    20   ar
    10     4     2   ar
    11     6     8    1
    12     6     3   ar
    13    24    23    1
    14    23    14    1
    15     2     1   ar
    16     2     5    1
    17     3     1   ar
    18     3     9    1
    19     1    10    1
    20    14    15   ar
    21    10    11    1
    22    20    25    1
    23    20    17   ar
    24    25    26    1
    25    15    17   ar
    26    15    18    1
    27    17    22    1
