@<TRIPOS>MOLECULE
mol_data/noopt/geoms/mol2/4gf4gf4gf-.out
 38 40 0 0 0
SMALL
GASTEIGER

@<TRIPOS>ATOM
      1 C           0.0509    0.0309    0.0002 C.ar    1  LIG1        0.0055
      2 C           1.4592    0.0309    0.0002 C.ar    1  LIG1       -0.0373
      3 C          -0.6045    1.2792    0.0002 C.ar    1  LIG1       -0.0451
      4 C           2.1849    1.2200   -0.0004 C.ar    1  LIG1        0.0257
      5 H           1.9850   -0.9213    0.0004 H       1  LIG1        0.0636
      6 C           0.1195    2.4666   -0.0004 C.ar    1  LIG1       -0.0185
      7 C           1.5181    2.4458   -0.0008 C.ar    1  LIG1        0.1246
      8 H          -0.4090    3.4165   -0.0003 H       1  LIG1        0.0654
      9 H          -1.9035    1.3287    0.0016 H       1  LIG1        0.0630
     10 S          -0.5708   -1.1107    0.0005 S.3     1  LIG1       -0.1426
     11 H           0.3045   -2.0853    0.0006 H       1  LIG1        0.1071
     12 O           2.1896    3.5590   -0.0012 O.3     1  LIG1       -0.5062
     13 H           1.5802    4.3008   -0.0013 H       1  LIG1        0.2922
     14 C           4.1518   -0.0588    0.0002 C.ar    1  LIG1        0.0134
     15 C           5.5600   -0.0451    0.0016 C.ar    1  LIG1       -0.0367
     16 C           3.4843    1.1831   -0.0005 C.ar    1  LIG1        0.0023
     17 C           6.2742    1.1510    0.0017 C.ar    1  LIG1        0.0258
     18 H           6.0950   -0.9922    0.0024 H       1  LIG1        0.0636
     19 C           4.1968    2.3775   -0.0004 C.ar    1  LIG1       -0.0107
     20 C           5.5955    2.3702    0.0006 C.ar    1  LIG1        0.1252
     21 H           3.6591    3.3222   -0.0009 H       1  LIG1        0.0661
     22 S           3.5412   -1.2064   -0.0001 S.3     1  LIG1       -0.1420
     23 H           4.4260   -2.1725   -0.0002 H       1  LIG1        0.1071
     24 O           6.2562    3.4899    0.0008 O.3     1  LIG1       -0.5061
     25 H           5.6396    4.2257    0.0009 H       1  LIG1        0.2922
     26 C           8.2534   -0.1085    0.0256 C.ar    1  LIG1        0.0128
     27 C           9.6614   -0.0811    0.0275 C.ar    1  LIG1       -0.0445
     28 C           7.5739    1.1267    0.0029 C.ar    1  LIG1        0.0022
     29 C          10.3639    1.1216    0.0070 C.ar    1  LIG1       -0.0191
     30 H          10.2055   -1.0228    0.0451 H       1  LIG1        0.0630
     31 C           8.2747    2.3277   -0.0175 C.ar    1  LIG1       -0.0113
     32 C           9.6735    2.3341   -0.0157 C.ar    1  LIG1        0.1175
     33 H           7.7279    3.2670   -0.0348 H       1  LIG1        0.0660
     34 H          11.6639    1.1100    0.0093 H       1  LIG1        0.0654
     35 S           7.6539   -1.2618    0.0451 S.3     1  LIG1       -0.1420
     36 H           8.5479   -2.2192    0.0516 H       1  LIG1        0.1071
     37 O          10.3233    3.4599   -0.0347 O.3     1  LIG1       -0.5067
     38 H           9.6996    4.1897   -0.0394 H       1  LIG1        0.2921
@<TRIPOS>BOND
     1    38    37    1
     2    33    31    1
     3    37    32    1
     4    31    32   ar
     5    31    28   ar
     6    32    29   ar
     7    13    12    1
     8    12     7    1
     9    21    19    1
    10     7     6   ar
    11     7     4   ar
    12    16    19   ar
    13    16     4    1
    14    16    14   ar
    15    19    20   ar
    16     6     8    1
    17     6     3   ar
    18     4     2   ar
    19    23    22    1
    20    22    14    1
    21     1     2   ar
    22     1     3   ar
    23     1    10    1
    24     2     5    1
    25     3     9    1
    26    14    15   ar
    27    10    11    1
    28    20    24    1
    29    20    17   ar
    30    24    25    1
    31    15    17   ar
    32    15    18    1
    33    17    28    1
    34    28    26   ar
    35    29    34    1
    36    29    27   ar
    37    26    27   ar
    38    26    35    1
    39    27    30    1
    40    35    36    1
