@<TRIPOS>MOLECULE
mol_data/noopt/geoms/mol2/4gg4gg-4gg-4gg.out
 50 53 0 0 0
SMALL
GASTEIGER

@<TRIPOS>ATOM
      1 C           0.0509    0.0309    0.0002 C.ar    1  LIG1        0.0054
      2 C           1.4592    0.0309    0.0002 C.ar    1  LIG1       -0.0398
      3 C          -0.6045    1.2792    0.0002 C.ar    1  LIG1       -0.0475
      4 C           2.1849    1.2200   -0.0004 C.ar    1  LIG1       -0.0026
      5 H           1.9850   -0.9213    0.0004 H       1  LIG1        0.0635
      6 C           0.1195    2.4666   -0.0004 C.ar    1  LIG1       -0.0469
      7 C           1.5181    2.4458   -0.0008 C.ar    1  LIG1        0.0125
      8 H          -0.4090    3.4165   -0.0003 H       1  LIG1        0.0629
      9 H          -1.9035    1.3287    0.0016 H       1  LIG1        0.0629
     10 S          -0.5708   -1.1107    0.0005 S.3     1  LIG1       -0.1426
     11 H           0.3045   -2.0853    0.0006 H       1  LIG1        0.1071
     12 S           2.1896    3.5589   -0.0012 S.3     1  LIG1       -0.1420
     13 H           1.3580    4.5712   -0.0013 H       1  LIG1        0.1071
     14 C           4.1518   -0.0586    0.0215 C.ar    1  LIG1        0.0131
     15 C           5.5600   -0.0449    0.0220 C.ar    1  LIG1       -0.0392
     16 C           3.4843    1.1831   -0.0005 C.ar    1  LIG1       -0.0026
     17 C           6.2742    1.1510    0.0009 C.ar    1  LIG1       -0.0026
     18 H           6.0951   -0.9918    0.0390 H       1  LIG1        0.0635
     19 C           4.1968    2.3773   -0.0216 C.ar    1  LIG1       -0.0392
     20 C           5.5955    2.3701   -0.0212 C.ar    1  LIG1        0.0131
     21 H           3.6591    3.3219   -0.0383 H       1  LIG1        0.0635
     22 S           3.5412   -1.2060    0.0416 S.3     1  LIG1       -0.1420
     23 H           4.4259   -2.1721    0.0483 H       1  LIG1        0.1071
     24 S           6.2561    3.4895   -0.0408 S.3     1  LIG1       -0.1420
     25 H           5.4148    4.4936   -0.0474 H       1  LIG1        0.1071
     26 C           8.2534   -0.1084    0.0245 C.ar    1  LIG1        0.0131
     27 C           9.6614   -0.0811    0.0261 C.ar    1  LIG1       -0.0392
     28 C           7.5739    1.1267    0.0018 C.ar    1  LIG1       -0.0026
     29 C          10.3639    1.1217    0.0055 C.ar    1  LIG1       -0.0026
     30 H          10.2056   -1.0227    0.0436 H       1  LIG1        0.0635
     31 C           8.2747    2.3278   -0.0187 C.ar    1  LIG1       -0.0392
     32 C           9.6734    2.3341   -0.0171 C.ar    1  LIG1        0.0131
     33 H           7.7279    3.2671   -0.0358 H       1  LIG1        0.0635
     34 S           7.6539   -1.2617    0.0440 S.3     1  LIG1       -0.1420
     35 H           8.5480   -2.2192    0.0506 H       1  LIG1        0.1071
     36 S          10.3232    3.4599   -0.0362 S.3     1  LIG1       -0.1420
     37 H           9.4722    4.4559   -0.0426 H       1  LIG1        0.1071
     38 C          12.3553   -0.1186    0.0095 C.ar    1  LIG1        0.0125
     39 C          13.7630   -0.0776    0.0132 C.ar    1  LIG1       -0.0469
     40 C          11.6638    1.1101    0.0076 C.ar    1  LIG1       -0.0026
     41 C          14.4537    1.1322    0.0144 C.ar    1  LIG1       -0.0475
     42 H          14.3163   -1.0141    0.0149 H       1  LIG1        0.0629
     43 C          12.3529    2.3181    0.0088 C.ar    1  LIG1       -0.0398
     44 C          13.7515    2.3380    0.0121 C.ar    1  LIG1        0.0054
     45 H          11.7970    3.2522    0.0074 H       1  LIG1        0.0635
     46 H          15.7537    1.1331    0.0178 H       1  LIG1        0.0629
     47 S          11.7671   -1.2779    0.0082 S.3     1  LIG1       -0.1420
     48 H          12.6704   -2.2265    0.0078 H       1  LIG1        0.1071
     49 S          14.3902    3.4702    0.0134 S.3     1  LIG1       -0.1426
     50 H          13.5296    4.4578    0.0138 H       1  LIG1        0.1071
@<TRIPOS>BOND
     1    25    24    1
     2    37    36    1
     3    24    20    1
     4    21    19    1
     5    36    32    1
     6    33    31    1
     7    19    20   ar
     8    19    16   ar
     9    20    17   ar
    10    31    32   ar
    11    31    28   ar
    12    32    29   ar
    13    13    12    1
    14    12     7    1
    15     7     4   ar
    16     7     6   ar
    17    16     4    1
    18    16    14   ar
    19     4     2   ar
    20     6     8    1
    21     6     3   ar
    22     2     1   ar
    23     2     5    1
    24     3     1   ar
    25     3     9    1
    26     1    10    1
    27    10    11    1
    28    17    28    1
    29    17    15   ar
    30    28    26   ar
    31    29    40    1
    32    29    27   ar
    33    45    43    1
    34    40    43   ar
    35    40    38   ar
    36    48    47    1
    37    47    38    1
    38    43    44   ar
    39    38    39   ar
    40    44    49    1
    41    44    41   ar
    42    39    41   ar
    43    39    42    1
    44    49    50    1
    45    41    46    1
    46    14    15   ar
    47    14    22    1
    48    15    18    1
    49    26    27   ar
    50    26    34    1
    51    27    30    1
    52    22    23    1
    53    34    35    1
