@<TRIPOS>MOLECULE
mol_data/noopt/geoms/mol2/4gg4gg-4gg4gg.out
 50 53 0 0 0
SMALL
GASTEIGER

@<TRIPOS>ATOM
      1 C           0.0509    0.0309    0.0002 C.ar    1  LIG1        0.0054
      2 C           1.4592    0.0309    0.0002 C.ar    1  LIG1       -0.0398
      3 C          -0.6045    1.2792    0.0002 C.ar    1  LIG1       -0.0475
      4 C           2.1849    1.2200   -0.0004 C.ar    1  LIG1       -0.0026
      5 H           1.9850   -0.9213    0.0004 H       1  LIG1        0.0635
      6 C           0.1195    2.4666   -0.0004 C.ar    1  LIG1       -0.0469
      7 C           1.5181    2.4458   -0.0008 C.ar    1  LIG1        0.0125
      8 H          -0.4090    3.4165   -0.0003 H       1  LIG1        0.0629
      9 H          -1.9035    1.3287    0.0016 H       1  LIG1        0.0629
     10 S          -0.5708   -1.1107    0.0005 S.3     1  LIG1       -0.1426
     11 H           0.3045   -2.0853    0.0006 H       1  LIG1        0.1071
     12 S           2.1896    3.5589   -0.0012 S.3     1  LIG1       -0.1420
     13 H           1.3580    4.5712   -0.0013 H       1  LIG1        0.1071
     14 C           4.1518   -0.0586    0.0215 C.ar    1  LIG1        0.0131
     15 C           5.5600   -0.0449    0.0220 C.ar    1  LIG1       -0.0392
     16 C           3.4843    1.1831   -0.0005 C.ar    1  LIG1       -0.0026
     17 C           6.2742    1.1510    0.0009 C.ar    1  LIG1       -0.0026
     18 H           6.0951   -0.9918    0.0390 H       1  LIG1        0.0635
     19 C           4.1968    2.3773   -0.0216 C.ar    1  LIG1       -0.0392
     20 C           5.5955    2.3701   -0.0212 C.ar    1  LIG1        0.0131
     21 H           3.6591    3.3219   -0.0383 H       1  LIG1        0.0635
     22 S           3.5412   -1.2060    0.0416 S.3     1  LIG1       -0.1420
     23 H           4.4259   -2.1721    0.0483 H       1  LIG1        0.1071
     24 S           6.2561    3.4895   -0.0408 S.3     1  LIG1       -0.1420
     25 H           5.4148    4.4936   -0.0474 H       1  LIG1        0.1071
     26 C           8.2534   -0.1086    0.0031 C.ar    1  LIG1        0.0131
     27 C           9.6614   -0.0813    0.0057 C.ar    1  LIG1       -0.0392
     28 C           7.5739    1.1267    0.0018 C.ar    1  LIG1       -0.0026
     29 C          10.3639    1.1217    0.0064 C.ar    1  LIG1       -0.0026
     30 H          10.2056   -1.0231    0.0069 H       1  LIG1        0.0635
     31 C           8.2747    2.3280    0.0025 C.ar    1  LIG1       -0.0392
     32 C           9.6734    2.3343    0.0046 C.ar    1  LIG1        0.0131
     33 H           7.7278    3.2674    0.0016 H       1  LIG1        0.0635
     34 S           7.6540   -1.2621    0.0024 S.3     1  LIG1       -0.1420
     35 H           8.5481   -2.2195    0.0021 H       1  LIG1        0.1071
     36 S          10.3231    3.4603    0.0054 S.3     1  LIG1       -0.1420
     37 H           9.4721    4.4562    0.0057 H       1  LIG1        0.1071
     38 C          12.3552   -0.1187    0.0106 C.ar    1  LIG1        0.0125
     39 C          13.7629   -0.0777    0.0146 C.ar    1  LIG1       -0.0469
     40 C          11.6638    1.1100    0.0086 C.ar    1  LIG1       -0.0026
     41 C          14.4537    1.1321    0.0159 C.ar    1  LIG1       -0.0475
     42 H          14.3162   -1.0142    0.0164 H       1  LIG1        0.0629
     43 C          12.3529    2.3180    0.0100 C.ar    1  LIG1       -0.0398
     44 C          13.7515    2.3379    0.0135 C.ar    1  LIG1        0.0054
     45 H          11.7970    3.2521    0.0085 H       1  LIG1        0.0635
     46 H          15.7537    1.1330    0.0195 H       1  LIG1        0.0629
     47 S          11.7670   -1.2779    0.0093 S.3     1  LIG1       -0.1420
     48 H          12.6704   -2.2266    0.0088 H       1  LIG1        0.1071
     49 S          14.3903    3.4701    0.0149 S.3     1  LIG1       -0.1426
     50 H          13.5296    4.4577    0.0154 H       1  LIG1        0.1071
@<TRIPOS>BOND
     1    25    24    1
     2    24    20    1
     3    21    19    1
     4    19    20   ar
     5    19    16   ar
     6    20    17   ar
     7    13    12    1
     8    12     7    1
     9     7     6   ar
    10     7     4   ar
    11    16     4    1
    12    16    14   ar
    13     6     8    1
    14     6     3   ar
    15     4     2   ar
    16     1     3   ar
    17     1     2   ar
    18     1    10    1
    19     3     9    1
    20     2     5    1
    21    10    11    1
    22    17    28    1
    23    17    15   ar
    24    33    31    1
    25    28    31   ar
    26    28    26   ar
    27    35    34    1
    28    34    26    1
    29    31    32   ar
    30    26    27   ar
    31    32    36    1
    32    32    29   ar
    33    36    37    1
    34    27    29   ar
    35    27    30    1
    36    29    40    1
    37    45    43    1
    38    40    43   ar
    39    40    38   ar
    40    48    47    1
    41    47    38    1
    42    43    44   ar
    43    38    39   ar
    44    44    49    1
    45    44    41   ar
    46    39    41   ar
    47    39    42    1
    48    49    50    1
    49    41    46    1
    50    14    15   ar
    51    14    22    1
    52    15    18    1
    53    22    23    1
