@<TRIPOS>MOLECULE
mol_data/noopt/geoms/mol2/4gg4gg-.out
 26 27 0 0 0
SMALL
GASTEIGER

@<TRIPOS>ATOM
      1 C           0.0509    0.0309    0.0002 C.ar    1  LIG1        0.0054
      2 C           1.4592    0.0309    0.0002 C.ar    1  LIG1       -0.0398
      3 C          -0.6045    1.2792    0.0002 C.ar    1  LIG1       -0.0475
      4 C           2.1849    1.2200   -0.0004 C.ar    1  LIG1       -0.0026
      5 H           1.9850   -0.9213    0.0004 H       1  LIG1        0.0635
      6 C           0.1195    2.4666   -0.0004 C.ar    1  LIG1       -0.0469
      7 C           1.5181    2.4458   -0.0008 C.ar    1  LIG1        0.0125
      8 H          -0.4090    3.4165   -0.0003 H       1  LIG1        0.0629
      9 H          -1.9035    1.3287    0.0016 H       1  LIG1        0.0629
     10 S          -0.5708   -1.1107    0.0005 S.3     1  LIG1       -0.1426
     11 H           0.3045   -2.0853    0.0006 H       1  LIG1        0.1071
     12 S           2.1896    3.5589   -0.0012 S.3     1  LIG1       -0.1420
     13 H           1.3580    4.5712   -0.0013 H       1  LIG1        0.1071
     14 C           4.1518   -0.0586    0.0215 C.ar    1  LIG1        0.0125
     15 C           5.5600   -0.0449    0.0220 C.ar    1  LIG1       -0.0469
     16 C           3.4843    1.1831   -0.0005 C.ar    1  LIG1       -0.0026
     17 C           6.2742    1.1510    0.0009 C.ar    1  LIG1       -0.0475
     18 H           6.0951   -0.9918    0.0390 H       1  LIG1        0.0629
     19 C           4.1968    2.3773   -0.0216 C.ar    1  LIG1       -0.0398
     20 C           5.5955    2.3701   -0.0212 C.ar    1  LIG1        0.0054
     21 H           3.6591    3.3219   -0.0383 H       1  LIG1        0.0635
     22 H           7.5740    1.1267    0.0018 H       1  LIG1        0.0629
     23 S           3.5412   -1.2060    0.0416 S.3     1  LIG1       -0.1420
     24 H           4.4259   -2.1721    0.0483 H       1  LIG1        0.1071
     25 S           6.2561    3.4895   -0.0408 S.3     1  LIG1       -0.1426
     26 H           5.4148    4.4936   -0.0474 H       1  LIG1        0.1071
@<TRIPOS>BOND
     1    26    25    1
     2    25    20    1
     3    21    19    1
     4    19    20   ar
     5    19    16   ar
     6    20    17   ar
     7    13    12    1
     8    12     7    1
     9     7     4   ar
    10     7     6   ar
    11    16     4    1
    12    16    14   ar
    13     4     2   ar
    14     6     8    1
    15     6     3   ar
    16     1     3   ar
    17     1     2   ar
    18     1    10    1
    19     3     9    1
    20     2     5    1
    21    10    11    1
    22    17    22    1
    23    17    15   ar
    24    14    15   ar
    25    14    23    1
    26    15    18    1
    27    23    24    1
