@<TRIPOS>MOLECULE
mol_data/noopt/geoms/mol2/4gg4gg4gg4gg.out
 50 53 0 0 0
SMALL
GASTEIGER

@<TRIPOS>ATOM
      1 C           0.0509    0.0309    0.0002 C.ar    1  LIG1        0.0054
      2 C           1.4592    0.0309    0.0002 C.ar    1  LIG1       -0.0398
      3 C          -0.6045    1.2792    0.0002 C.ar    1  LIG1       -0.0475
      4 C           2.1849    1.2200   -0.0004 C.ar    1  LIG1       -0.0026
      5 H           1.9850   -0.9213    0.0004 H       1  LIG1        0.0635
      6 C           0.1195    2.4666   -0.0004 C.ar    1  LIG1       -0.0469
      7 C           1.5181    2.4458   -0.0008 C.ar    1  LIG1        0.0125
      8 H          -0.4090    3.4165   -0.0003 H       1  LIG1        0.0629
      9 H          -1.9035    1.3287    0.0016 H       1  LIG1        0.0629
     10 S          -0.5708   -1.1107    0.0005 S.3     1  LIG1       -0.1426
     11 H           0.3045   -2.0853    0.0006 H       1  LIG1        0.1071
     12 S           2.1896    3.5589   -0.0012 S.3     1  LIG1       -0.1420
     13 H           1.3580    4.5712   -0.0013 H       1  LIG1        0.1071
     14 C           4.1518   -0.0588    0.0002 C.ar    1  LIG1        0.0131
     15 C           5.5600   -0.0451    0.0016 C.ar    1  LIG1       -0.0392
     16 C           3.4843    1.1831   -0.0005 C.ar    1  LIG1       -0.0026
     17 C           6.2742    1.1510    0.0017 C.ar    1  LIG1       -0.0026
     18 H           6.0950   -0.9922    0.0024 H       1  LIG1        0.0635
     19 C           4.1968    2.3775   -0.0004 C.ar    1  LIG1       -0.0392
     20 C           5.5955    2.3702    0.0006 C.ar    1  LIG1        0.0131
     21 H           3.6591    3.3222   -0.0009 H       1  LIG1        0.0635
     22 S           3.5412   -1.2064   -0.0001 S.3     1  LIG1       -0.1420
     23 H           4.4260   -2.1725   -0.0002 H       1  LIG1        0.1071
     24 S           6.2561    3.4898    0.0008 S.3     1  LIG1       -0.1420
     25 H           5.4148    4.4939    0.0009 H       1  LIG1        0.1071
     26 C           8.2534   -0.1087    0.0043 C.ar    1  LIG1        0.0131
     27 C           9.6614   -0.0814    0.0071 C.ar    1  LIG1       -0.0392
     28 C           7.5739    1.1267    0.0029 C.ar    1  LIG1       -0.0026
     29 C          10.3639    1.1216    0.0079 C.ar    1  LIG1       -0.0026
     30 H          10.2056   -1.0232    0.0084 H       1  LIG1        0.0635
     31 C           8.2747    2.3279    0.0036 C.ar    1  LIG1       -0.0392
     32 C           9.6734    2.3342    0.0060 C.ar    1  LIG1        0.0131
     33 H           7.7279    3.2674    0.0026 H       1  LIG1        0.0635
     34 S           7.6539   -1.2622    0.0034 S.3     1  LIG1       -0.1420
     35 H           8.5480   -2.2196    0.0032 H       1  LIG1        0.1071
     36 S          10.3232    3.4602    0.0069 S.3     1  LIG1       -0.1420
     37 H           9.4722    4.4561    0.0072 H       1  LIG1        0.1071
     38 C          12.3552   -0.1188    0.0125 C.ar    1  LIG1        0.0125
     39 C          13.7629   -0.0778    0.0167 C.ar    1  LIG1       -0.0469
     40 C          11.6638    1.1099    0.0104 C.ar    1  LIG1       -0.0026
     41 C          14.4537    1.1319    0.0181 C.ar    1  LIG1       -0.0475
     42 H          14.3162   -1.0143    0.0186 H       1  LIG1        0.0629
     43 C          12.3529    2.3179    0.0118 C.ar    1  LIG1       -0.0398
     44 C          13.7515    2.3378    0.0156 C.ar    1  LIG1        0.0054
     45 H          11.7970    3.2520    0.0102 H       1  LIG1        0.0635
     46 H          15.7537    1.1328    0.0219 H       1  LIG1        0.0629
     47 S          11.7670   -1.2780    0.0110 S.3     1  LIG1       -0.1420
     48 H          12.6703   -2.2268    0.0106 H       1  LIG1        0.1071
     49 S          14.3903    3.4700    0.0171 S.3     1  LIG1       -0.1426
     50 H          13.5297    4.4576    0.0176 H       1  LIG1        0.1071
@<TRIPOS>BOND
     1    13    12    1
     2    12     7    1
     3    21    19    1
     4     7     4   ar
     5     7     6   ar
     6    16    19   ar
     7    16     4    1
     8    16    14   ar
     9    19    20   ar
    10     4     2   ar
    11     6     8    1
    12     6     3   ar
    13    23    22    1
    14    22    14    1
    15     2     1   ar
    16     2     5    1
    17     3     1   ar
    18     3     9    1
    19     1    10    1
    20    14    15   ar
    21    10    11    1
    22    20    24    1
    23    20    17   ar
    24    24    25    1
    25    15    17   ar
    26    15    18    1
    27    17    28    1
    28    33    31    1
    29    28    31   ar
    30    28    26   ar
    31    35    34    1
    32    34    26    1
    33    31    32   ar
    34    26    27   ar
    35    32    36    1
    36    32    29   ar
    37    36    37    1
    38    27    29   ar
    39    27    30    1
    40    29    40    1
    41    45    43    1
    42    40    43   ar
    43    40    38   ar
    44    48    47    1
    45    47    38    1
    46    43    44   ar
    47    38    39   ar
    48    44    49    1
    49    44    41   ar
    50    39    41   ar
    51    39    42    1
    52    49    50    1
    53    41    46    1
