@<TRIPOS>MOLECULE
mol_data/noopt/geoms/mol2/4gh.out
 15 15 0 0 0
SMALL
GASTEIGER

@<TRIPOS>ATOM
      1 C           0.0509    0.0309    0.0002 C.ar    1  LIG1        0.0049
      2 C           1.4592    0.0309    0.0002 C.ar    1  LIG1       -0.0468
      3 C          -0.6045    1.2792    0.0002 C.ar    1  LIG1       -0.0468
      4 C           2.1849    1.2200   -0.0004 C.ar    1  LIG1       -0.0400
      5 H           1.9850   -0.9213    0.0004 H       1  LIG1        0.0629
      6 C           0.1195    2.4666   -0.0004 C.ar    1  LIG1       -0.0400
      7 C           1.5181    2.4458   -0.0008 C.ar    1  LIG1        0.0246
      8 H          -0.4090    3.4165   -0.0003 H       1  LIG1        0.0636
      9 H           3.4844    1.1831   -0.0005 H       1  LIG1        0.0636
     10 H          -1.9035    1.3287    0.0016 H       1  LIG1        0.0629
     11 S          -0.5708   -1.1107    0.0005 S.3     1  LIG1       -0.1426
     12 H           0.3045   -2.0853    0.0006 H       1  LIG1        0.1071
     13 N           2.1896    3.5590   -0.0012 N.pl3   1  LIG1       -0.3580
     14 H           3.0608    3.4225   -0.4727 H       1  LIG1        0.1423
     15 H           1.6626    4.2660   -0.4727 H       1  LIG1        0.1423
@<TRIPOS>BOND
     1    15    13    1
     2    14    13    1
     3    13     7    1
     4     7     4   ar
     5     7     6   ar
     6     9     4    1
     7     4     2   ar
     8     6     8    1
     9     6     3   ar
    10     1     2   ar
    11     1     3   ar
    12     1    11    1
    13     2     5    1
    14     3    10    1
    15    11    12    1
