@<TRIPOS>MOLECULE
mol_data/noopt/geoms/mol2/4gh4gh.out
 28 29 0 0 0
SMALL
GASTEIGER

@<TRIPOS>ATOM
      1 C           0.0509    0.0309    0.0002 C.ar    1  LIG1        0.0054
      2 C           1.4592    0.0309    0.0002 C.ar    1  LIG1       -0.0390
      3 C          -0.6045    1.2792    0.0002 C.ar    1  LIG1       -0.0468
      4 C           2.1849    1.2200   -0.0004 C.ar    1  LIG1        0.0049
      5 H           1.9850   -0.9213    0.0004 H       1  LIG1        0.0635
      6 C           0.1195    2.4666   -0.0004 C.ar    1  LIG1       -0.0394
      7 C           1.5181    2.4458   -0.0008 C.ar    1  LIG1        0.0325
      8 H          -0.4090    3.4165   -0.0003 H       1  LIG1        0.0636
      9 H          -1.9035    1.3287    0.0016 H       1  LIG1        0.0629
     10 S          -0.5708   -1.1107    0.0005 S.3     1  LIG1       -0.1426
     11 H           0.3045   -2.0853    0.0006 H       1  LIG1        0.1071
     12 N           2.1896    3.5590   -0.0012 N.pl3   1  LIG1       -0.3575
     13 H           3.0608    3.4225   -0.4727 H       1  LIG1        0.1423
     14 H           1.6626    4.2660   -0.4727 H       1  LIG1        0.1423
     15 C           4.1518   -0.0588    0.0002 C.ar    1  LIG1        0.0126
     16 C           5.5600   -0.0451    0.0016 C.ar    1  LIG1       -0.0462
     17 C           3.4843    1.1831   -0.0005 C.ar    1  LIG1       -0.0012
     18 C           6.2742    1.1510    0.0017 C.ar    1  LIG1       -0.0400
     19 H           6.0950   -0.9922    0.0024 H       1  LIG1        0.0629
     20 C           4.1968    2.3775   -0.0004 C.ar    1  LIG1       -0.0322
     21 C           5.5955    2.3702    0.0006 C.ar    1  LIG1        0.0252
     22 H           3.6591    3.3222   -0.0009 H       1  LIG1        0.0642
     23 H           7.5740    1.1267    0.0029 H       1  LIG1        0.0636
     24 S           3.5412   -1.2064   -0.0001 S.3     1  LIG1       -0.1420
     25 H           4.4260   -2.1725   -0.0002 H       1  LIG1        0.1071
     26 N           6.2562    3.4899    0.0008 N.pl3   1  LIG1       -0.3579
     27 H           7.1288    3.3621   -0.4705 H       1  LIG1        0.1423
     28 H           5.7224    4.1919   -0.4706 H       1  LIG1        0.1423
@<TRIPOS>BOND
     1    14    12    1
     2    13    12    1
     3    28    26    1
     4    27    26    1
     5    12     7    1
     6    22    20    1
     7     7     4   ar
     8     7     6   ar
     9    17    20   ar
    10    17     4    1
    11    17    15   ar
    12    20    21   ar
    13     4     2   ar
    14     6     8    1
    15     6     3   ar
    16    25    24    1
    17    24    15    1
    18     1     3   ar
    19     1     2   ar
    20     1    10    1
    21     3     9    1
    22     2     5    1
    23    15    16   ar
    24    10    11    1
    25    21    26    1
    26    21    18   ar
    27    16    18   ar
    28    16    19    1
    29    18    23    1
