@<TRIPOS>MOLECULE
mol_data/noopt/geoms/mol2/4gh4gh-4gh.out
 41 43 0 0 0
SMALL
GASTEIGER

@<TRIPOS>ATOM
      1 C           0.0509    0.0309    0.0002 C.ar    1  LIG1        0.0054
      2 C           1.4592    0.0309    0.0002 C.ar    1  LIG1       -0.0390
      3 C          -0.6045    1.2792    0.0002 C.ar    1  LIG1       -0.0468
      4 C           2.1849    1.2200   -0.0004 C.ar    1  LIG1        0.0049
      5 H           1.9850   -0.9213    0.0004 H       1  LIG1        0.0635
      6 C           0.1195    2.4666   -0.0004 C.ar    1  LIG1       -0.0394
      7 C           1.5181    2.4458   -0.0008 C.ar    1  LIG1        0.0325
      8 H          -0.4090    3.4165   -0.0003 H       1  LIG1        0.0636
      9 H          -1.9035    1.3287    0.0016 H       1  LIG1        0.0629
     10 S          -0.5708   -1.1107    0.0005 S.3     1  LIG1       -0.1426
     11 H           0.3045   -2.0853    0.0006 H       1  LIG1        0.1071
     12 N           2.1896    3.5590   -0.0012 N.pl3   1  LIG1       -0.3575
     13 H           3.0608    3.4225   -0.4727 H       1  LIG1        0.1423
     14 H           1.6626    4.2660   -0.4727 H       1  LIG1        0.1423
     15 C           4.1518   -0.0586    0.0215 C.ar    1  LIG1        0.0132
     16 C           5.5600   -0.0449    0.0220 C.ar    1  LIG1       -0.0385
     17 C           3.4843    1.1831   -0.0005 C.ar    1  LIG1       -0.0012
     18 C           6.2742    1.1510    0.0009 C.ar    1  LIG1        0.0049
     19 H           6.0951   -0.9918    0.0390 H       1  LIG1        0.0635
     20 C           4.1968    2.3773   -0.0216 C.ar    1  LIG1       -0.0316
     21 C           5.5955    2.3701   -0.0212 C.ar    1  LIG1        0.0330
     22 H           3.6591    3.3219   -0.0383 H       1  LIG1        0.0642
     23 S           3.5412   -1.2060    0.0416 S.3     1  LIG1       -0.1420
     24 H           4.4259   -2.1721    0.0483 H       1  LIG1        0.1071
     25 N           6.2561    3.4895   -0.0408 N.pl3   1  LIG1       -0.3575
     26 H           7.1251    3.3554   -0.5172 H       1  LIG1        0.1423
     27 H           5.7188    4.1854   -0.5172 H       1  LIG1        0.1423
     28 C           8.2534   -0.1086    0.0031 C.ar    1  LIG1        0.0126
     29 C           9.6614   -0.0813    0.0057 C.ar    1  LIG1       -0.0462
     30 C           7.5739    1.1267    0.0018 C.ar    1  LIG1       -0.0012
     31 C          10.3639    1.1217    0.0064 C.ar    1  LIG1       -0.0400
     32 H          10.2056   -1.0231    0.0069 H       1  LIG1        0.0629
     33 C           8.2747    2.3280    0.0025 C.ar    1  LIG1       -0.0322
     34 C           9.6734    2.3343    0.0046 C.ar    1  LIG1        0.0252
     35 H           7.7278    3.2674    0.0016 H       1  LIG1        0.0642
     36 H          11.6639    1.1100    0.0086 H       1  LIG1        0.0636
     37 S           7.6540   -1.2621    0.0024 S.3     1  LIG1       -0.1420
     38 H           8.5481   -2.2195    0.0021 H       1  LIG1        0.1071
     39 N          10.3232    3.4603    0.0054 N.pl3   1  LIG1       -0.3579
     40 H          11.1971    3.3412   -0.4658 H       1  LIG1        0.1423
     41 H           9.7827    4.1573   -0.4658 H       1  LIG1        0.1423
@<TRIPOS>BOND
     1    27    25    1
     2    26    25    1
     3    14    12    1
     4    13    12    1
     5    41    39    1
     6    40    39    1
     7    25    21    1
     8    22    20    1
     9    20    21   ar
    10    20    17   ar
    11    21    18   ar
    12    12     7    1
    13     7     4   ar
    14     7     6   ar
    15    17     4    1
    16    17    15   ar
    17     4     2   ar
    18     6     8    1
    19     6     3   ar
    20     2     1   ar
    21     2     5    1
    22     3     1   ar
    23     3     9    1
    24     1    10    1
    25    10    11    1
    26    18    30    1
    27    18    16   ar
    28    35    33    1
    29    30    33   ar
    30    30    28   ar
    31    38    37    1
    32    37    28    1
    33    33    34   ar
    34    28    29   ar
    35    34    39    1
    36    34    31   ar
    37    29    31   ar
    38    29    32    1
    39    31    36    1
    40    15    16   ar
    41    15    23    1
    42    16    19    1
    43    23    24    1
