@<TRIPOS>MOLECULE
mol_data/noopt/geoms/mol2/4gh4gh-4gh-.out
 41 43 0 0 0
SMALL
GASTEIGER

@<TRIPOS>ATOM
      1 C           0.0509    0.0309    0.0002 C.ar    1  LIG1        0.0054
      2 C           1.4592    0.0309    0.0002 C.ar    1  LIG1       -0.0390
      3 C          -0.6045    1.2792    0.0002 C.ar    1  LIG1       -0.0468
      4 C           2.1849    1.2200   -0.0004 C.ar    1  LIG1        0.0049
      5 H           1.9850   -0.9213    0.0004 H       1  LIG1        0.0635
      6 C           0.1195    2.4666   -0.0004 C.ar    1  LIG1       -0.0394
      7 C           1.5181    2.4458   -0.0008 C.ar    1  LIG1        0.0325
      8 H          -0.4090    3.4165   -0.0003 H       1  LIG1        0.0636
      9 H          -1.9035    1.3287    0.0016 H       1  LIG1        0.0629
     10 S          -0.5708   -1.1107    0.0005 S.3     1  LIG1       -0.1426
     11 H           0.3045   -2.0853    0.0006 H       1  LIG1        0.1071
     12 N           2.1896    3.5590   -0.0012 N.pl3   1  LIG1       -0.3575
     13 H           3.0608    3.4225   -0.4727 H       1  LIG1        0.1423
     14 H           1.6626    4.2660   -0.4727 H       1  LIG1        0.1423
     15 C           4.1518   -0.0586    0.0215 C.ar    1  LIG1        0.0132
     16 C           5.5600   -0.0449    0.0220 C.ar    1  LIG1       -0.0385
     17 C           3.4843    1.1831   -0.0005 C.ar    1  LIG1       -0.0012
     18 C           6.2742    1.1510    0.0009 C.ar    1  LIG1        0.0049
     19 H           6.0951   -0.9918    0.0390 H       1  LIG1        0.0635
     20 C           4.1968    2.3773   -0.0216 C.ar    1  LIG1       -0.0316
     21 C           5.5955    2.3701   -0.0212 C.ar    1  LIG1        0.0330
     22 H           3.6591    3.3219   -0.0383 H       1  LIG1        0.0642
     23 S           3.5412   -1.2060    0.0416 S.3     1  LIG1       -0.1420
     24 H           4.4259   -2.1721    0.0483 H       1  LIG1        0.1071
     25 N           6.2561    3.4895   -0.0408 N.pl3   1  LIG1       -0.3575
     26 H           7.1251    3.3554   -0.5172 H       1  LIG1        0.1423
     27 H           5.7188    4.1854   -0.5172 H       1  LIG1        0.1423
     28 C           8.2534   -0.1084    0.0245 C.ar    1  LIG1        0.0126
     29 C           9.6614   -0.0811    0.0261 C.ar    1  LIG1       -0.0462
     30 C           7.5739    1.1267    0.0018 C.ar    1  LIG1       -0.0012
     31 C          10.3639    1.1217    0.0055 C.ar    1  LIG1       -0.0400
     32 H          10.2056   -1.0227    0.0436 H       1  LIG1        0.0629
     33 C           8.2747    2.3278   -0.0187 C.ar    1  LIG1       -0.0322
     34 C           9.6734    2.3341   -0.0171 C.ar    1  LIG1        0.0252
     35 H           7.7279    3.2671   -0.0358 H       1  LIG1        0.0642
     36 H          11.6639    1.1101    0.0076 H       1  LIG1        0.0636
     37 S           7.6539   -1.2617    0.0440 S.3     1  LIG1       -0.1420
     38 H           8.5480   -2.2192    0.0506 H       1  LIG1        0.1071
     39 N          10.3232    3.4600   -0.0362 N.pl3   1  LIG1       -0.3579
     40 H          11.1935    3.3345   -0.5125 H       1  LIG1        0.1423
     41 H           9.7792    4.1508   -0.5125 H       1  LIG1        0.1423
@<TRIPOS>BOND
     1    27    25    1
     2    26    25    1
     3    41    39    1
     4    40    39    1
     5    14    12    1
     6    13    12    1
     7    25    21    1
     8    22    20    1
     9    39    34    1
    10    35    33    1
    11    20    21   ar
    12    20    17   ar
    13    21    18   ar
    14    33    34   ar
    15    33    30   ar
    16    34    31   ar
    17    12     7    1
    18     7     6   ar
    19     7     4   ar
    20    17     4    1
    21    17    15   ar
    22     6     8    1
    23     6     3   ar
    24     4     2   ar
    25     1     2   ar
    26     1     3   ar
    27     1    10    1
    28     2     5    1
    29     3     9    1
    30    10    11    1
    31    18    30    1
    32    18    16   ar
    33    30    28   ar
    34    31    36    1
    35    31    29   ar
    36    15    16   ar
    37    15    23    1
    38    16    19    1
    39    28    29   ar
    40    28    37    1
    41    29    32    1
    42    23    24    1
    43    37    38    1
