@<TRIPOS>MOLECULE
mol_data/noopt/geoms/mol2/4gh4gh-4gh-4gh-.out
 54 57 0 0 0
SMALL
GASTEIGER

@<TRIPOS>ATOM
      1 C           0.0509    0.0309    0.0002 C.ar    1  LIG1        0.0054
      2 C           1.4592    0.0309    0.0002 C.ar    1  LIG1       -0.0390
      3 C          -0.6045    1.2792    0.0002 C.ar    1  LIG1       -0.0468
      4 C           2.1849    1.2200   -0.0004 C.ar    1  LIG1        0.0049
      5 H           1.9850   -0.9213    0.0004 H       1  LIG1        0.0635
      6 C           0.1195    2.4666   -0.0004 C.ar    1  LIG1       -0.0394
      7 C           1.5181    2.4458   -0.0008 C.ar    1  LIG1        0.0325
      8 H          -0.4090    3.4165   -0.0003 H       1  LIG1        0.0636
      9 H          -1.9035    1.3287    0.0016 H       1  LIG1        0.0629
     10 S          -0.5708   -1.1107    0.0005 S.3     1  LIG1       -0.1426
     11 H           0.3045   -2.0853    0.0006 H       1  LIG1        0.1071
     12 N           2.1896    3.5590   -0.0012 N.pl3   1  LIG1       -0.3575
     13 H           3.0608    3.4225   -0.4727 H       1  LIG1        0.1423
     14 H           1.6626    4.2660   -0.4727 H       1  LIG1        0.1423
     15 C           4.1518   -0.0586    0.0215 C.ar    1  LIG1        0.0132
     16 C           5.5600   -0.0449    0.0220 C.ar    1  LIG1       -0.0385
     17 C           3.4843    1.1831   -0.0005 C.ar    1  LIG1       -0.0012
     18 C           6.2742    1.1510    0.0009 C.ar    1  LIG1        0.0049
     19 H           6.0951   -0.9918    0.0390 H       1  LIG1        0.0635
     20 C           4.1968    2.3773   -0.0216 C.ar    1  LIG1       -0.0316
     21 C           5.5955    2.3701   -0.0212 C.ar    1  LIG1        0.0330
     22 H           3.6591    3.3219   -0.0383 H       1  LIG1        0.0642
     23 S           3.5412   -1.2060    0.0416 S.3     1  LIG1       -0.1420
     24 H           4.4259   -2.1721    0.0483 H       1  LIG1        0.1071
     25 N           6.2561    3.4895   -0.0408 N.pl3   1  LIG1       -0.3575
     26 H           7.1251    3.3554   -0.5172 H       1  LIG1        0.1423
     27 H           5.7188    4.1854   -0.5172 H       1  LIG1        0.1423
     28 C           8.2534   -0.1084    0.0245 C.ar    1  LIG1        0.0132
     29 C           9.6614   -0.0811    0.0261 C.ar    1  LIG1       -0.0385
     30 C           7.5739    1.1267    0.0018 C.ar    1  LIG1       -0.0012
     31 C          10.3639    1.1217    0.0055 C.ar    1  LIG1        0.0049
     32 H          10.2056   -1.0227    0.0436 H       1  LIG1        0.0635
     33 C           8.2747    2.3278   -0.0187 C.ar    1  LIG1       -0.0316
     34 C           9.6734    2.3341   -0.0171 C.ar    1  LIG1        0.0330
     35 H           7.7279    3.2671   -0.0358 H       1  LIG1        0.0642
     36 S           7.6539   -1.2617    0.0440 S.3     1  LIG1       -0.1420
     37 H           8.5480   -2.2192    0.0506 H       1  LIG1        0.1071
     38 N          10.3232    3.4600   -0.0362 N.pl3   1  LIG1       -0.3575
     39 H          11.1935    3.3345   -0.5125 H       1  LIG1        0.1423
     40 H           9.7792    4.1508   -0.5125 H       1  LIG1        0.1423
     41 C          12.3552   -0.1184    0.0308 C.ar    1  LIG1        0.0126
     42 C          13.7629   -0.0774    0.0336 C.ar    1  LIG1       -0.0462
     43 C          11.6638    1.1101    0.0076 C.ar    1  LIG1       -0.0012
     44 C          14.4537    1.1322    0.0136 C.ar    1  LIG1       -0.0400
     45 H          14.3162   -1.0137    0.0516 H       1  LIG1        0.0629
     46 C          12.3529    2.3179   -0.0124 C.ar    1  LIG1       -0.0322
     47 C          13.7515    2.3378   -0.0096 C.ar    1  LIG1        0.0252
     48 H          11.7970    3.2518   -0.0300 H       1  LIG1        0.0642
     49 H          15.7537    1.1332    0.0167 H       1  LIG1        0.0636
     50 S          11.7670   -1.2775    0.0499 S.3     1  LIG1       -0.1420
     51 H          12.6703   -2.2262    0.0563 H       1  LIG1        0.1071
     52 N          14.3903    3.4699   -0.0282 N.pl3   1  LIG1       -0.3579
     53 H          15.2619    3.3531   -0.5043 H       1  LIG1        0.1423
     54 H          13.8398    4.1556   -0.5044 H       1  LIG1        0.1423
@<TRIPOS>BOND
     1    27    25    1
     2    26    25    1
     3    40    38    1
     4    39    38    1
     5    54    52    1
     6    53    52    1
     7    14    12    1
     8    13    12    1
     9    25    21    1
    10    22    20    1
    11    38    34    1
    12    35    33    1
    13    48    46    1
    14    52    47    1
    15    20    21   ar
    16    20    17   ar
    17    21    18   ar
    18    33    34   ar
    19    33    30   ar
    20    34    31   ar
    21    46    47   ar
    22    46    43   ar
    23    47    44   ar
    24    12     7    1
    25     7     4   ar
    26     7     6   ar
    27    17     4    1
    28    17    15   ar
    29     4     2   ar
    30     6     8    1
    31     6     3   ar
    32     1     2   ar
    33     1     3   ar
    34     1    10    1
    35     2     5    1
    36     3     9    1
    37    10    11    1
    38    18    30    1
    39    18    16   ar
    40    30    28   ar
    41    31    43    1
    42    31    29   ar
    43    43    41   ar
    44    44    49    1
    45    44    42   ar
    46    15    16   ar
    47    15    23    1
    48    16    19    1
    49    28    29   ar
    50    28    36    1
    51    29    32    1
    52    41    42   ar
    53    41    50    1
    54    42    45    1
    55    23    24    1
    56    36    37    1
    57    50    51    1
