@<TRIPOS>MOLECULE
mol_data/noopt/geoms/mol2/4gh4gh-.out
 28 29 0 0 0
SMALL
GASTEIGER

@<TRIPOS>ATOM
      1 C           0.0509    0.0309    0.0002 C.ar    1  LIG1        0.0054
      2 C           1.4592    0.0309    0.0002 C.ar    1  LIG1       -0.0390
      3 C          -0.6045    1.2792    0.0002 C.ar    1  LIG1       -0.0468
      4 C           2.1849    1.2200   -0.0004 C.ar    1  LIG1        0.0049
      5 H           1.9850   -0.9213    0.0004 H       1  LIG1        0.0635
      6 C           0.1195    2.4666   -0.0004 C.ar    1  LIG1       -0.0394
      7 C           1.5181    2.4458   -0.0008 C.ar    1  LIG1        0.0325
      8 H          -0.4090    3.4165   -0.0003 H       1  LIG1        0.0636
      9 H          -1.9035    1.3287    0.0016 H       1  LIG1        0.0629
     10 S          -0.5708   -1.1107    0.0005 S.3     1  LIG1       -0.1426
     11 H           0.3045   -2.0853    0.0006 H       1  LIG1        0.1071
     12 N           2.1896    3.5590   -0.0012 N.pl3   1  LIG1       -0.3575
     13 H           3.0608    3.4225   -0.4727 H       1  LIG1        0.1423
     14 H           1.6626    4.2660   -0.4727 H       1  LIG1        0.1423
     15 C           4.1518   -0.0586    0.0215 C.ar    1  LIG1        0.0126
     16 C           5.5600   -0.0449    0.0220 C.ar    1  LIG1       -0.0462
     17 C           3.4843    1.1831   -0.0005 C.ar    1  LIG1       -0.0012
     18 C           6.2742    1.1510    0.0009 C.ar    1  LIG1       -0.0400
     19 H           6.0951   -0.9918    0.0390 H       1  LIG1        0.0629
     20 C           4.1968    2.3773   -0.0216 C.ar    1  LIG1       -0.0322
     21 C           5.5955    2.3701   -0.0212 C.ar    1  LIG1        0.0252
     22 H           3.6591    3.3219   -0.0383 H       1  LIG1        0.0642
     23 H           7.5740    1.1267    0.0018 H       1  LIG1        0.0636
     24 S           3.5412   -1.2060    0.0416 S.3     1  LIG1       -0.1420
     25 H           4.4259   -2.1721    0.0483 H       1  LIG1        0.1071
     26 N           6.2561    3.4895   -0.0408 N.pl3   1  LIG1       -0.3579
     27 H           7.1251    3.3554   -0.5172 H       1  LIG1        0.1423
     28 H           5.7188    4.1854   -0.5172 H       1  LIG1        0.1423
@<TRIPOS>BOND
     1    28    26    1
     2    27    26    1
     3    14    12    1
     4    13    12    1
     5    26    21    1
     6    22    20    1
     7    20    21   ar
     8    20    17   ar
     9    21    18   ar
    10    12     7    1
    11     7     4   ar
    12     7     6   ar
    13    17     4    1
    14    17    15   ar
    15     4     2   ar
    16     6     8    1
    17     6     3   ar
    18     1     3   ar
    19     1     2   ar
    20     1    10    1
    21     3     9    1
    22     2     5    1
    23    10    11    1
    24    18    23    1
    25    18    16   ar
    26    15    16   ar
    27    15    24    1
    28    16    19    1
    29    24    25    1
