@<TRIPOS>MOLECULE
mol_data/noopt/geoms/mol2/4gh4gh4gh-4gh.out
 54 57 0 0 0
SMALL
GASTEIGER

@<TRIPOS>ATOM
      1 C           0.0509    0.0309    0.0002 C.ar    1  LIG1        0.0054
      2 C           1.4592    0.0309    0.0002 C.ar    1  LIG1       -0.0390
      3 C          -0.6045    1.2792    0.0002 C.ar    1  LIG1       -0.0468
      4 C           2.1849    1.2200   -0.0004 C.ar    1  LIG1        0.0049
      5 H           1.9850   -0.9213    0.0004 H       1  LIG1        0.0635
      6 C           0.1195    2.4666   -0.0004 C.ar    1  LIG1       -0.0394
      7 C           1.5181    2.4458   -0.0008 C.ar    1  LIG1        0.0325
      8 H          -0.4090    3.4165   -0.0003 H       1  LIG1        0.0636
      9 H          -1.9035    1.3287    0.0016 H       1  LIG1        0.0629
     10 S          -0.5708   -1.1107    0.0005 S.3     1  LIG1       -0.1426
     11 H           0.3045   -2.0853    0.0006 H       1  LIG1        0.1071
     12 N           2.1896    3.5590   -0.0012 N.pl3   1  LIG1       -0.3575
     13 H           3.0608    3.4225   -0.4727 H       1  LIG1        0.1423
     14 H           1.6626    4.2660   -0.4727 H       1  LIG1        0.1423
     15 C           4.1518   -0.0588    0.0002 C.ar    1  LIG1        0.0132
     16 C           5.5600   -0.0451    0.0016 C.ar    1  LIG1       -0.0385
     17 C           3.4843    1.1831   -0.0005 C.ar    1  LIG1       -0.0012
     18 C           6.2742    1.1510    0.0017 C.ar    1  LIG1        0.0049
     19 H           6.0950   -0.9922    0.0024 H       1  LIG1        0.0635
     20 C           4.1968    2.3775   -0.0004 C.ar    1  LIG1       -0.0316
     21 C           5.5955    2.3702    0.0006 C.ar    1  LIG1        0.0330
     22 H           3.6591    3.3222   -0.0009 H       1  LIG1        0.0642
     23 S           3.5412   -1.2064   -0.0001 S.3     1  LIG1       -0.1420
     24 H           4.4260   -2.1725   -0.0002 H       1  LIG1        0.1071
     25 N           6.2562    3.4899    0.0008 N.pl3   1  LIG1       -0.3575
     26 H           7.1288    3.3621   -0.4705 H       1  LIG1        0.1423
     27 H           5.7224    4.1919   -0.4706 H       1  LIG1        0.1423
     28 C           8.2534   -0.1085    0.0256 C.ar    1  LIG1        0.0132
     29 C           9.6614   -0.0811    0.0275 C.ar    1  LIG1       -0.0385
     30 C           7.5739    1.1267    0.0029 C.ar    1  LIG1       -0.0012
     31 C          10.3639    1.1216    0.0070 C.ar    1  LIG1        0.0049
     32 H          10.2055   -1.0228    0.0451 H       1  LIG1        0.0635
     33 C           8.2747    2.3277   -0.0175 C.ar    1  LIG1       -0.0316
     34 C           9.6735    2.3341   -0.0157 C.ar    1  LIG1        0.0330
     35 H           7.7279    3.2670   -0.0348 H       1  LIG1        0.0642
     36 S           7.6539   -1.2618    0.0451 S.3     1  LIG1       -0.1420
     37 H           8.5479   -2.2192    0.0516 H       1  LIG1        0.1071
     38 N          10.3232    3.4599   -0.0347 N.pl3   1  LIG1       -0.3575
     39 H          11.1936    3.3344   -0.5109 H       1  LIG1        0.1423
     40 H           9.7793    4.1507   -0.5110 H       1  LIG1        0.1423
     41 C          12.3552   -0.1187    0.0113 C.ar    1  LIG1        0.0126
     42 C          13.7629   -0.0777    0.0153 C.ar    1  LIG1       -0.0462
     43 C          11.6638    1.1100    0.0093 C.ar    1  LIG1       -0.0012
     44 C          14.4537    1.1320    0.0166 C.ar    1  LIG1       -0.0400
     45 H          14.3162   -1.0142    0.0171 H       1  LIG1        0.0629
     46 C          12.3529    2.3179    0.0106 C.ar    1  LIG1       -0.0322
     47 C          13.7515    2.3379    0.0142 C.ar    1  LIG1        0.0252
     48 H          11.7970    3.2520    0.0092 H       1  LIG1        0.0642
     49 H          15.7537    1.1329    0.0202 H       1  LIG1        0.0636
     50 S          11.7670   -1.2780    0.0100 S.3     1  LIG1       -0.1420
     51 H          12.6704   -2.2267    0.0095 H       1  LIG1        0.1071
     52 N          14.3903    3.4701    0.0156 N.pl3   1  LIG1       -0.3579
     53 H          15.2655    3.3596   -0.4555 H       1  LIG1        0.1423
     54 H          13.8433    4.1620   -0.4555 H       1  LIG1        0.1423
@<TRIPOS>BOND
     1    40    38    1
     2    39    38    1
     3    14    12    1
     4    13    12    1
     5    27    25    1
     6    26    25    1
     7    54    52    1
     8    53    52    1
     9    35    33    1
    10    38    34    1
    11    33    34   ar
    12    33    30   ar
    13    34    31   ar
    14    12     7    1
    15    22    20    1
    16     7     6   ar
    17     7     4   ar
    18    17    20   ar
    19    17     4    1
    20    17    15   ar
    21    20    21   ar
    22     6     8    1
    23     6     3   ar
    24     4     2   ar
    25    24    23    1
    26    23    15    1
    27     1     2   ar
    28     1     3   ar
    29     1    10    1
    30     2     5    1
    31     3     9    1
    32    15    16   ar
    33    10    11    1
    34    21    25    1
    35    21    18   ar
    36    16    18   ar
    37    16    19    1
    38    18    30    1
    39    30    28   ar
    40    31    43    1
    41    31    29   ar
    42    48    46    1
    43    43    46   ar
    44    43    41   ar
    45    51    50    1
    46    50    41    1
    47    46    47   ar
    48    41    42   ar
    49    47    52    1
    50    47    44   ar
    51    42    44   ar
    52    42    45    1
    53    44    49    1
    54    28    29   ar
    55    28    36    1
    56    29    32    1
    57    36    37    1
