@<TRIPOS>MOLECULE
mol_data/noopt/geoms/mol2/4gi4gi4gi-.out
 44 46 0 0 0
SMALL
GASTEIGER

@<TRIPOS>ATOM
      1 C           0.0509    0.0309    0.0002 C.ar    1  LIG1        0.0053
      2 C           1.4592    0.0309    0.0002 C.ar    1  LIG1       -0.0406
      3 C          -0.6045    1.2792    0.0002 C.ar    1  LIG1       -0.0483
      4 C           2.1849    1.2200   -0.0004 C.ar    1  LIG1       -0.0129
      5 H           1.9850   -0.9213    0.0004 H       1  LIG1        0.0635
      6 C           0.1195    2.4666   -0.0004 C.ar    1  LIG1       -0.0572
      7 C           1.5181    2.4458   -0.0008 C.ar    1  LIG1       -0.0426
      8 H          -0.4090    3.4165   -0.0003 H       1  LIG1        0.0621
      9 H          -1.9035    1.3287    0.0016 H       1  LIG1        0.0629
     10 S          -0.5708   -1.1107    0.0005 S.3     1  LIG1       -0.1426
     11 H           0.3045   -2.0853    0.0006 H       1  LIG1        0.1071
     12 C           2.1897    3.5592   -0.0012 C.3     1  LIG1       -0.0391
     13 H           1.6260    4.3160    0.5031 H       1  LIG1        0.0278
     14 H           2.3738    3.8644   -1.0102 H       1  LIG1        0.0278
     15 H           3.1221    3.4135    0.5030 H       1  LIG1        0.0278
     16 C           4.1518   -0.0588    0.0002 C.ar    1  LIG1        0.0130
     17 C           5.5600   -0.0451    0.0016 C.ar    1  LIG1       -0.0400
     18 C           3.4843    1.1831   -0.0005 C.ar    1  LIG1       -0.0042
     19 C           6.2742    1.1510    0.0017 C.ar    1  LIG1       -0.0129
     20 H           6.0950   -0.9922    0.0024 H       1  LIG1        0.0635
     21 C           4.1968    2.3775   -0.0004 C.ar    1  LIG1       -0.0495
     22 C           5.5955    2.3702    0.0006 C.ar    1  LIG1       -0.0421
     23 H           3.6591    3.3222   -0.0009 H       1  LIG1        0.0627
     24 S           3.5412   -1.2064   -0.0001 S.3     1  LIG1       -0.1420
     25 H           4.4260   -2.1725   -0.0002 H       1  LIG1        0.1071
     26 C           6.2563    3.4901    0.0008 C.3     1  LIG1       -0.0391
     27 H           5.6851    4.2412    0.5053 H       1  LIG1        0.0278
     28 H           6.4376    3.7975   -1.0080 H       1  LIG1        0.0278
     29 H           7.1900    3.3532    0.5052 H       1  LIG1        0.0278
     30 C           8.2534   -0.1085    0.0256 C.ar    1  LIG1        0.0125
     31 C           9.6614   -0.0811    0.0275 C.ar    1  LIG1       -0.0477
     32 C           7.5739    1.1267    0.0029 C.ar    1  LIG1       -0.0042
     33 C          10.3639    1.1216    0.0070 C.ar    1  LIG1       -0.0578
     34 H          10.2055   -1.0228    0.0451 H       1  LIG1        0.0629
     35 C           8.2747    2.3277   -0.0175 C.ar    1  LIG1       -0.0501
     36 C           9.6735    2.3341   -0.0157 C.ar    1  LIG1       -0.0498
     37 H           7.7279    3.2670   -0.0348 H       1  LIG1        0.0627
     38 H          11.6639    1.1100    0.0093 H       1  LIG1        0.0621
     39 S           7.6539   -1.2618    0.0451 S.3     1  LIG1       -0.1420
     40 H           8.5479   -2.2192    0.0516 H       1  LIG1        0.1071
     41 C          10.3234    3.4601   -0.0347 C.3     1  LIG1       -0.0397
     42 H           9.7487    4.2121    0.4644 H       1  LIG1        0.0278
     43 H          10.4942    3.7563   -1.0487 H       1  LIG1        0.0278
     44 H          11.2620    3.3386    0.4644 H       1  LIG1        0.0278
@<TRIPOS>BOND
     1    43    41    1
     2    14    12    1
     3    28    26    1
     4    37    35    1
     5    41    36    1
     6    41    44    1
     7    41    42    1
     8    35    36   ar
     9    35    32   ar
    10    36    33   ar
    11    12     7    1
    12    12    15    1
    13    12    13    1
    14    23    21    1
    15     7     6   ar
    16     7     4   ar
    17    18    21   ar
    18    18     4    1
    19    18    16   ar
    20    21    22   ar
    21     6     8    1
    22     6     3   ar
    23     4     2   ar
    24    25    24    1
    25    24    16    1
    26     1     2   ar
    27     1     3   ar
    28     1    10    1
    29     2     5    1
    30     3     9    1
    31    16    17   ar
    32    10    11    1
    33    22    26    1
    34    22    19   ar
    35    26    29    1
    36    26    27    1
    37    17    19   ar
    38    17    20    1
    39    19    32    1
    40    32    30   ar
    41    33    38    1
    42    33    31   ar
    43    30    31   ar
    44    30    39    1
    45    31    34    1
    46    39    40    1
