@<TRIPOS>MOLECULE
mol_data/noopt/geoms/mol2/4gi4gi-4gi-4gi.out
 58 61 0 0 0
SMALL
GASTEIGER

@<TRIPOS>ATOM
      1 C           0.0509    0.0309    0.0002 C.ar    1  LIG1        0.0053
      2 C           1.4592    0.0309    0.0002 C.ar    1  LIG1       -0.0406
      3 C          -0.6045    1.2792    0.0002 C.ar    1  LIG1       -0.0483
      4 C           2.1849    1.2200   -0.0004 C.ar    1  LIG1       -0.0129
      5 H           1.9850   -0.9213    0.0004 H       1  LIG1        0.0635
      6 C           0.1195    2.4666   -0.0004 C.ar    1  LIG1       -0.0572
      7 C           1.5181    2.4458   -0.0008 C.ar    1  LIG1       -0.0426
      8 H          -0.4090    3.4165   -0.0003 H       1  LIG1        0.0621
      9 H          -1.9035    1.3287    0.0016 H       1  LIG1        0.0629
     10 S          -0.5708   -1.1107    0.0005 S.3     1  LIG1       -0.1426
     11 H           0.3045   -2.0853    0.0006 H       1  LIG1        0.1071
     12 C           2.1897    3.5592   -0.0012 C.3     1  LIG1       -0.0391
     13 H           1.6260    4.3160    0.5031 H       1  LIG1        0.0278
     14 H           2.3738    3.8644   -1.0102 H       1  LIG1        0.0278
     15 H           3.1221    3.4135    0.5030 H       1  LIG1        0.0278
     16 C           4.1518   -0.0586    0.0215 C.ar    1  LIG1        0.0130
     17 C           5.5600   -0.0449    0.0220 C.ar    1  LIG1       -0.0400
     18 C           3.4843    1.1831   -0.0005 C.ar    1  LIG1       -0.0042
     19 C           6.2742    1.1510    0.0009 C.ar    1  LIG1       -0.0129
     20 H           6.0951   -0.9918    0.0390 H       1  LIG1        0.0635
     21 C           4.1968    2.3773   -0.0216 C.ar    1  LIG1       -0.0495
     22 C           5.5955    2.3701   -0.0212 C.ar    1  LIG1       -0.0421
     23 H           3.6591    3.3219   -0.0383 H       1  LIG1        0.0627
     24 S           3.5412   -1.2060    0.0416 S.3     1  LIG1       -0.1420
     25 H           4.4259   -2.1721    0.0483 H       1  LIG1        0.1071
     26 C           6.2563    3.4898   -0.0408 C.3     1  LIG1       -0.0391
     27 H           5.6890    4.2475    0.4582 H       1  LIG1        0.0278
     28 H           6.4298    3.7839   -1.0549 H       1  LIG1        0.0278
     29 H           7.1938    3.3594    0.4581 H       1  LIG1        0.0278
     30 C           8.2534   -0.1084    0.0245 C.ar    1  LIG1        0.0130
     31 C           9.6614   -0.0811    0.0261 C.ar    1  LIG1       -0.0400
     32 C           7.5739    1.1267    0.0018 C.ar    1  LIG1       -0.0042
     33 C          10.3639    1.1217    0.0055 C.ar    1  LIG1       -0.0129
     34 H          10.2056   -1.0227    0.0436 H       1  LIG1        0.0635
     35 C           8.2747    2.3278   -0.0187 C.ar    1  LIG1       -0.0495
     36 C           9.6734    2.3341   -0.0171 C.ar    1  LIG1       -0.0421
     37 H           7.7279    3.2671   -0.0358 H       1  LIG1        0.0627
     38 S           7.6539   -1.2617    0.0440 S.3     1  LIG1       -0.1420
     39 H           8.5480   -2.2192    0.0506 H       1  LIG1        0.1071
     40 C          10.3233    3.4602   -0.0362 C.3     1  LIG1       -0.0391
     41 H           9.7487    4.2122    0.4629 H       1  LIG1        0.0278
     42 H          10.4942    3.7563   -1.0502 H       1  LIG1        0.0278
     43 H          11.2620    3.3388    0.4628 H       1  LIG1        0.0278
     44 C          12.3553   -0.1186    0.0095 C.ar    1  LIG1        0.0125
     45 C          13.7630   -0.0776    0.0132 C.ar    1  LIG1       -0.0477
     46 C          11.6638    1.1101    0.0076 C.ar    1  LIG1       -0.0042
     47 C          14.4537    1.1322    0.0144 C.ar    1  LIG1       -0.0578
     48 H          14.3163   -1.0141    0.0149 H       1  LIG1        0.0629
     49 C          12.3529    2.3181    0.0088 C.ar    1  LIG1       -0.0501
     50 C          13.7515    2.3380    0.0121 C.ar    1  LIG1       -0.0498
     51 H          11.7970    3.2522    0.0074 H       1  LIG1        0.0627
     52 H          15.7537    1.1331    0.0178 H       1  LIG1        0.0621
     53 S          11.7671   -1.2779    0.0082 S.3     1  LIG1       -0.1420
     54 H          12.6704   -2.2265    0.0078 H       1  LIG1        0.1071
     55 C          14.3904    3.4705    0.0134 C.3     1  LIG1       -0.0397
     56 H          13.8045    4.2100    0.5182 H       1  LIG1        0.0278
     57 H          14.5661    3.7821   -0.9951 H       1  LIG1        0.0278
     58 H          15.3264    3.3514    0.5181 H       1  LIG1        0.0278
@<TRIPOS>BOND
     1    28    26    1
     2    42    40    1
     3    14    12    1
     4    57    55    1
     5    26    22    1
     6    26    29    1
     7    26    27    1
     8    23    21    1
     9    40    36    1
    10    40    43    1
    11    40    41    1
    12    37    35    1
    13    21    22   ar
    14    21    18   ar
    15    22    19   ar
    16    35    36   ar
    17    35    32   ar
    18    36    33   ar
    19    12     7    1
    20    12    15    1
    21    12    13    1
    22     7     4   ar
    23     7     6   ar
    24    18     4    1
    25    18    16   ar
    26     4     2   ar
    27     6     8    1
    28     6     3   ar
    29     2     1   ar
    30     2     5    1
    31     1     3   ar
    32     1    10    1
    33     3     9    1
    34    10    11    1
    35    19    32    1
    36    19    17   ar
    37    32    30   ar
    38    33    46    1
    39    33    31   ar
    40    51    49    1
    41    46    49   ar
    42    46    44   ar
    43    54    53    1
    44    53    44    1
    45    49    50   ar
    46    44    45   ar
    47    50    55    1
    48    50    47   ar
    49    45    47   ar
    50    45    48    1
    51    55    58    1
    52    55    56    1
    53    47    52    1
    54    16    17   ar
    55    16    24    1
    56    17    20    1
    57    30    31   ar
    58    30    38    1
    59    31    34    1
    60    24    25    1
    61    38    39    1
