@<TRIPOS>MOLECULE
mol_data/noopt/geoms/mol2/4gi4gi-4gi4gi-.out
 58 61 0 0 0
SMALL
GASTEIGER

@<TRIPOS>ATOM
      1 C           0.0509    0.0309    0.0002 C.ar    1  LIG1        0.0053
      2 C           1.4592    0.0309    0.0002 C.ar    1  LIG1       -0.0406
      3 C          -0.6045    1.2792    0.0002 C.ar    1  LIG1       -0.0483
      4 C           2.1849    1.2200   -0.0004 C.ar    1  LIG1       -0.0129
      5 H           1.9850   -0.9213    0.0004 H       1  LIG1        0.0635
      6 C           0.1195    2.4666   -0.0004 C.ar    1  LIG1       -0.0572
      7 C           1.5181    2.4458   -0.0008 C.ar    1  LIG1       -0.0426
      8 H          -0.4090    3.4165   -0.0003 H       1  LIG1        0.0621
      9 H          -1.9035    1.3287    0.0016 H       1  LIG1        0.0629
     10 S          -0.5708   -1.1107    0.0005 S.3     1  LIG1       -0.1426
     11 H           0.3045   -2.0853    0.0006 H       1  LIG1        0.1071
     12 C           2.1897    3.5592   -0.0012 C.3     1  LIG1       -0.0391
     13 H           1.6260    4.3160    0.5031 H       1  LIG1        0.0278
     14 H           2.3738    3.8644   -1.0102 H       1  LIG1        0.0278
     15 H           3.1221    3.4135    0.5030 H       1  LIG1        0.0278
     16 C           4.1518   -0.0586    0.0215 C.ar    1  LIG1        0.0130
     17 C           5.5600   -0.0449    0.0220 C.ar    1  LIG1       -0.0400
     18 C           3.4843    1.1831   -0.0005 C.ar    1  LIG1       -0.0042
     19 C           6.2742    1.1510    0.0009 C.ar    1  LIG1       -0.0129
     20 H           6.0951   -0.9918    0.0390 H       1  LIG1        0.0635
     21 C           4.1968    2.3773   -0.0216 C.ar    1  LIG1       -0.0495
     22 C           5.5955    2.3701   -0.0212 C.ar    1  LIG1       -0.0421
     23 H           3.6591    3.3219   -0.0383 H       1  LIG1        0.0627
     24 S           3.5412   -1.2060    0.0416 S.3     1  LIG1       -0.1420
     25 H           4.4259   -2.1721    0.0483 H       1  LIG1        0.1071
     26 C           6.2563    3.4898   -0.0408 C.3     1  LIG1       -0.0391
     27 H           5.6890    4.2475    0.4582 H       1  LIG1        0.0278
     28 H           6.4298    3.7839   -1.0549 H       1  LIG1        0.0278
     29 H           7.1938    3.3594    0.4581 H       1  LIG1        0.0278
     30 C           8.2534   -0.1086    0.0031 C.ar    1  LIG1        0.0130
     31 C           9.6614   -0.0813    0.0057 C.ar    1  LIG1       -0.0400
     32 C           7.5739    1.1267    0.0018 C.ar    1  LIG1       -0.0042
     33 C          10.3639    1.1217    0.0064 C.ar    1  LIG1       -0.0129
     34 H          10.2056   -1.0231    0.0069 H       1  LIG1        0.0635
     35 C           8.2747    2.3280    0.0025 C.ar    1  LIG1       -0.0495
     36 C           9.6734    2.3343    0.0046 C.ar    1  LIG1       -0.0421
     37 H           7.7278    3.2674    0.0016 H       1  LIG1        0.0627
     38 S           7.6540   -1.2621    0.0024 S.3     1  LIG1       -0.1420
     39 H           8.5481   -2.2195    0.0021 H       1  LIG1        0.1071
     40 C          10.3233    3.4606    0.0054 C.3     1  LIG1       -0.0391
     41 H           9.7448    4.2059    0.5100 H       1  LIG1        0.0278
     42 H          10.5018    3.7701   -1.0032 H       1  LIG1        0.0278
     43 H          11.2582    3.3325    0.5100 H       1  LIG1        0.0278
     44 C          12.3552   -0.1185    0.0320 C.ar    1  LIG1        0.0125
     45 C          13.7629   -0.0774    0.0350 C.ar    1  LIG1       -0.0477
     46 C          11.6638    1.1100    0.0086 C.ar    1  LIG1       -0.0042
     47 C          14.4537    1.1321    0.0151 C.ar    1  LIG1       -0.0578
     48 H          14.3162   -1.0138    0.0530 H       1  LIG1        0.0629
     49 C          12.3529    2.3178   -0.0112 C.ar    1  LIG1       -0.0501
     50 C          13.7516    2.3378   -0.0082 C.ar    1  LIG1       -0.0498
     51 H          11.7970    3.2518   -0.0289 H       1  LIG1        0.0627
     52 H          15.7537    1.1331    0.0185 H       1  LIG1        0.0621
     53 S          11.7670   -1.2775    0.0509 S.3     1  LIG1       -0.1420
     54 H          12.6703   -2.2263    0.0573 H       1  LIG1        0.1071
     55 C          14.3905    3.4701   -0.0267 C.3     1  LIG1       -0.0397
     56 H          13.8085    4.2163    0.4726 H       1  LIG1        0.0278
     57 H          14.5587    3.7683   -1.0405 H       1  LIG1        0.0278
     58 H          15.3302    3.3575    0.4725 H       1  LIG1        0.0278
@<TRIPOS>BOND
     1    28    26    1
     2    57    55    1
     3    14    12    1
     4    42    40    1
     5    26    22    1
     6    26    29    1
     7    26    27    1
     8    23    21    1
     9    51    49    1
    10    55    50    1
    11    55    58    1
    12    55    56    1
    13    21    22   ar
    14    21    18   ar
    15    22    19   ar
    16    49    50   ar
    17    49    46   ar
    18    50    47   ar
    19    12     7    1
    20    12    15    1
    21    12    13    1
    22     7     4   ar
    23     7     6   ar
    24    18     4    1
    25    18    16   ar
    26     4     2   ar
    27     6     8    1
    28     6     3   ar
    29     1     3   ar
    30     1     2   ar
    31     1    10    1
    32     3     9    1
    33     2     5    1
    34    10    11    1
    35    19    32    1
    36    19    17   ar
    37    37    35    1
    38    32    35   ar
    39    32    30   ar
    40    39    38    1
    41    38    30    1
    42    35    36   ar
    43    30    31   ar
    44    36    40    1
    45    36    33   ar
    46    40    43    1
    47    40    41    1
    48    31    33   ar
    49    31    34    1
    50    33    46    1
    51    46    44   ar
    52    47    52    1
    53    47    45   ar
    54    16    17   ar
    55    16    24    1
    56    17    20    1
    57    44    45   ar
    58    44    53    1
    59    45    48    1
    60    24    25    1
    61    53    54    1
