@<TRIPOS>MOLECULE
mol_data/noopt/geoms/mol2/4gi4gi-4gi.out
 44 46 0 0 0
SMALL
GASTEIGER

@<TRIPOS>ATOM
      1 C           0.0509    0.0309    0.0002 C.ar    1  LIG1        0.0053
      2 C           1.4592    0.0309    0.0002 C.ar    1  LIG1       -0.0406
      3 C          -0.6045    1.2792    0.0002 C.ar    1  LIG1       -0.0483
      4 C           2.1849    1.2200   -0.0004 C.ar    1  LIG1       -0.0129
      5 H           1.9850   -0.9213    0.0004 H       1  LIG1        0.0635
      6 C           0.1195    2.4666   -0.0004 C.ar    1  LIG1       -0.0572
      7 C           1.5181    2.4458   -0.0008 C.ar    1  LIG1       -0.0426
      8 H          -0.4090    3.4165   -0.0003 H       1  LIG1        0.0621
      9 H          -1.9035    1.3287    0.0016 H       1  LIG1        0.0629
     10 S          -0.5708   -1.1107    0.0005 S.3     1  LIG1       -0.1426
     11 H           0.3045   -2.0853    0.0006 H       1  LIG1        0.1071
     12 C           2.1897    3.5592   -0.0012 C.3     1  LIG1       -0.0391
     13 H           1.6260    4.3160    0.5031 H       1  LIG1        0.0278
     14 H           2.3738    3.8644   -1.0102 H       1  LIG1        0.0278
     15 H           3.1221    3.4135    0.5030 H       1  LIG1        0.0278
     16 C           4.1518   -0.0586    0.0215 C.ar    1  LIG1        0.0130
     17 C           5.5600   -0.0449    0.0220 C.ar    1  LIG1       -0.0400
     18 C           3.4843    1.1831   -0.0005 C.ar    1  LIG1       -0.0042
     19 C           6.2742    1.1510    0.0009 C.ar    1  LIG1       -0.0129
     20 H           6.0951   -0.9918    0.0390 H       1  LIG1        0.0635
     21 C           4.1968    2.3773   -0.0216 C.ar    1  LIG1       -0.0495
     22 C           5.5955    2.3701   -0.0212 C.ar    1  LIG1       -0.0421
     23 H           3.6591    3.3219   -0.0383 H       1  LIG1        0.0627
     24 S           3.5412   -1.2060    0.0416 S.3     1  LIG1       -0.1420
     25 H           4.4259   -2.1721    0.0483 H       1  LIG1        0.1071
     26 C           6.2563    3.4898   -0.0408 C.3     1  LIG1       -0.0391
     27 H           5.6890    4.2475    0.4582 H       1  LIG1        0.0278
     28 H           6.4298    3.7839   -1.0549 H       1  LIG1        0.0278
     29 H           7.1938    3.3594    0.4581 H       1  LIG1        0.0278
     30 C           8.2534   -0.1086    0.0031 C.ar    1  LIG1        0.0125
     31 C           9.6614   -0.0813    0.0057 C.ar    1  LIG1       -0.0477
     32 C           7.5739    1.1267    0.0018 C.ar    1  LIG1       -0.0042
     33 C          10.3639    1.1217    0.0064 C.ar    1  LIG1       -0.0578
     34 H          10.2056   -1.0231    0.0069 H       1  LIG1        0.0629
     35 C           8.2747    2.3280    0.0025 C.ar    1  LIG1       -0.0501
     36 C           9.6734    2.3343    0.0046 C.ar    1  LIG1       -0.0498
     37 H           7.7278    3.2674    0.0016 H       1  LIG1        0.0627
     38 H          11.6639    1.1100    0.0086 H       1  LIG1        0.0621
     39 S           7.6540   -1.2621    0.0024 S.3     1  LIG1       -0.1420
     40 H           8.5481   -2.2195    0.0021 H       1  LIG1        0.1071
     41 C          10.3233    3.4606    0.0054 C.3     1  LIG1       -0.0397
     42 H           9.7448    4.2059    0.5100 H       1  LIG1        0.0278
     43 H          10.5018    3.7701   -1.0032 H       1  LIG1        0.0278
     44 H          11.2582    3.3325    0.5100 H       1  LIG1        0.0278
@<TRIPOS>BOND
     1    28    26    1
     2    14    12    1
     3    43    41    1
     4    26    22    1
     5    26    29    1
     6    26    27    1
     7    23    21    1
     8    21    22   ar
     9    21    18   ar
    10    22    19   ar
    11    12     7    1
    12    12    15    1
    13    12    13    1
    14     7     4   ar
    15     7     6   ar
    16    18     4    1
    17    18    16   ar
    18     4     2   ar
    19     6     8    1
    20     6     3   ar
    21     1     2   ar
    22     1     3   ar
    23     1    10    1
    24     2     5    1
    25     3     9    1
    26    10    11    1
    27    19    32    1
    28    19    17   ar
    29    37    35    1
    30    32    35   ar
    31    32    30   ar
    32    40    39    1
    33    39    30    1
    34    35    36   ar
    35    30    31   ar
    36    36    41    1
    37    36    33   ar
    38    41    44    1
    39    41    42    1
    40    31    33   ar
    41    31    34    1
    42    33    38    1
    43    16    17   ar
    44    16    24    1
    45    17    20    1
    46    24    25    1
