@<TRIPOS>MOLECULE
mol_data/noopt/geoms/mol2/4gi4gi4gi4gi-.out
 58 61 0 0 0
SMALL
GASTEIGER

@<TRIPOS>ATOM
      1 C           0.0509    0.0309    0.0002 C.ar    1  LIG1        0.0053
      2 C           1.4592    0.0309    0.0002 C.ar    1  LIG1       -0.0406
      3 C          -0.6045    1.2792    0.0002 C.ar    1  LIG1       -0.0483
      4 C           2.1849    1.2200   -0.0004 C.ar    1  LIG1       -0.0129
      5 H           1.9850   -0.9213    0.0004 H       1  LIG1        0.0635
      6 C           0.1195    2.4666   -0.0004 C.ar    1  LIG1       -0.0572
      7 C           1.5181    2.4458   -0.0008 C.ar    1  LIG1       -0.0426
      8 H          -0.4090    3.4165   -0.0003 H       1  LIG1        0.0621
      9 H          -1.9035    1.3287    0.0016 H       1  LIG1        0.0629
     10 S          -0.5708   -1.1107    0.0005 S.3     1  LIG1       -0.1426
     11 H           0.3045   -2.0853    0.0006 H       1  LIG1        0.1071
     12 C           2.1897    3.5592   -0.0012 C.3     1  LIG1       -0.0391
     13 H           1.6260    4.3160    0.5031 H       1  LIG1        0.0278
     14 H           2.3738    3.8644   -1.0102 H       1  LIG1        0.0278
     15 H           3.1221    3.4135    0.5030 H       1  LIG1        0.0278
     16 C           4.1518   -0.0588    0.0002 C.ar    1  LIG1        0.0130
     17 C           5.5600   -0.0451    0.0016 C.ar    1  LIG1       -0.0400
     18 C           3.4843    1.1831   -0.0005 C.ar    1  LIG1       -0.0042
     19 C           6.2742    1.1510    0.0017 C.ar    1  LIG1       -0.0129
     20 H           6.0950   -0.9922    0.0024 H       1  LIG1        0.0635
     21 C           4.1968    2.3775   -0.0004 C.ar    1  LIG1       -0.0495
     22 C           5.5955    2.3702    0.0006 C.ar    1  LIG1       -0.0421
     23 H           3.6591    3.3222   -0.0009 H       1  LIG1        0.0627
     24 S           3.5412   -1.2064   -0.0001 S.3     1  LIG1       -0.1420
     25 H           4.4260   -2.1725   -0.0002 H       1  LIG1        0.1071
     26 C           6.2563    3.4901    0.0008 C.3     1  LIG1       -0.0391
     27 H           5.6851    4.2412    0.5053 H       1  LIG1        0.0278
     28 H           6.4376    3.7975   -1.0080 H       1  LIG1        0.0278
     29 H           7.1900    3.3532    0.5052 H       1  LIG1        0.0278
     30 C           8.2534   -0.1087    0.0043 C.ar    1  LIG1        0.0130
     31 C           9.6614   -0.0814    0.0071 C.ar    1  LIG1       -0.0400
     32 C           7.5739    1.1267    0.0029 C.ar    1  LIG1       -0.0042
     33 C          10.3639    1.1216    0.0079 C.ar    1  LIG1       -0.0129
     34 H          10.2056   -1.0232    0.0084 H       1  LIG1        0.0635
     35 C           8.2747    2.3279    0.0036 C.ar    1  LIG1       -0.0495
     36 C           9.6734    2.3342    0.0060 C.ar    1  LIG1       -0.0421
     37 H           7.7279    3.2674    0.0026 H       1  LIG1        0.0627
     38 S           7.6539   -1.2622    0.0034 S.3     1  LIG1       -0.1420
     39 H           8.5480   -2.2196    0.0032 H       1  LIG1        0.1071
     40 C          10.3234    3.4605    0.0069 C.3     1  LIG1       -0.0391
     41 H           9.7448    4.2058    0.5116 H       1  LIG1        0.0278
     42 H          10.5019    3.7700   -1.0017 H       1  LIG1        0.0278
     43 H          11.2582    3.3324    0.5115 H       1  LIG1        0.0278
     44 C          12.3552   -0.1186    0.0338 C.ar    1  LIG1        0.0125
     45 C          13.7629   -0.0776    0.0371 C.ar    1  LIG1       -0.0477
     46 C          11.6638    1.1099    0.0104 C.ar    1  LIG1       -0.0042
     47 C          14.4537    1.1319    0.0173 C.ar    1  LIG1       -0.0578
     48 H          14.3161   -1.0139    0.0552 H       1  LIG1        0.0629
     49 C          12.3530    2.3177   -0.0094 C.ar    1  LIG1       -0.0501
     50 C          13.7516    2.3376   -0.0062 C.ar    1  LIG1       -0.0498
     51 H          11.7971    3.2517   -0.0272 H       1  LIG1        0.0627
     52 H          15.7537    1.1329    0.0209 H       1  LIG1        0.0621
     53 S          11.7669   -1.2777    0.0527 S.3     1  LIG1       -0.1420
     54 H          12.6702   -2.2264    0.0591 H       1  LIG1        0.1071
     55 C          14.3906    3.4699   -0.0245 C.3     1  LIG1       -0.0397
     56 H          13.8085    4.2161    0.4748 H       1  LIG1        0.0278
     57 H          14.5588    3.7682   -1.0383 H       1  LIG1        0.0278
     58 H          15.3302    3.3573    0.4747 H       1  LIG1        0.0278
@<TRIPOS>BOND
     1    57    55    1
     2    14    12    1
     3    28    26    1
     4    42    40    1
     5    51    49    1
     6    55    50    1
     7    55    58    1
     8    55    56    1
     9    49    50   ar
    10    49    46   ar
    11    50    47   ar
    12    12     7    1
    13    12    15    1
    14    12    13    1
    15    23    21    1
    16     7     6   ar
    17     7     4   ar
    18    18    21   ar
    19    18     4    1
    20    18    16   ar
    21    21    22   ar
    22     6     8    1
    23     6     3   ar
    24     4     2   ar
    25    25    24    1
    26    24    16    1
    27     2     1   ar
    28     2     5    1
    29     3     1   ar
    30     3     9    1
    31     1    10    1
    32    16    17   ar
    33    10    11    1
    34    22    26    1
    35    22    19   ar
    36    26    29    1
    37    26    27    1
    38    17    19   ar
    39    17    20    1
    40    19    32    1
    41    37    35    1
    42    32    35   ar
    43    32    30   ar
    44    39    38    1
    45    38    30    1
    46    35    36   ar
    47    30    31   ar
    48    36    40    1
    49    36    33   ar
    50    40    43    1
    51    40    41    1
    52    31    33   ar
    53    31    34    1
    54    33    46    1
    55    46    44   ar
    56    47    52    1
    57    47    45   ar
    58    44    45   ar
    59    44    53    1
    60    45    48    1
    61    53    54    1
