@<TRIPOS>MOLECULE
mol_data/noopt/geoms/mol2/4gi4gi.out
 30 31 0 0 0
SMALL
GASTEIGER

@<TRIPOS>ATOM
      1 C           0.0509    0.0309    0.0002 C.ar    1  LIG1        0.0053
      2 C           1.4592    0.0309    0.0002 C.ar    1  LIG1       -0.0406
      3 C          -0.6045    1.2792    0.0002 C.ar    1  LIG1       -0.0483
      4 C           2.1849    1.2200   -0.0004 C.ar    1  LIG1       -0.0129
      5 H           1.9850   -0.9213    0.0004 H       1  LIG1        0.0635
      6 C           0.1195    2.4666   -0.0004 C.ar    1  LIG1       -0.0572
      7 C           1.5181    2.4458   -0.0008 C.ar    1  LIG1       -0.0426
      8 H          -0.4090    3.4165   -0.0003 H       1  LIG1        0.0621
      9 H          -1.9035    1.3287    0.0016 H       1  LIG1        0.0629
     10 S          -0.5708   -1.1107    0.0005 S.3     1  LIG1       -0.1426
     11 H           0.3045   -2.0853    0.0006 H       1  LIG1        0.1071
     12 C           2.1897    3.5592   -0.0012 C.3     1  LIG1       -0.0391
     13 H           1.6260    4.3160    0.5031 H       1  LIG1        0.0278
     14 H           2.3738    3.8644   -1.0102 H       1  LIG1        0.0278
     15 H           3.1221    3.4135    0.5030 H       1  LIG1        0.0278
     16 C           4.1518   -0.0588    0.0002 C.ar    1  LIG1        0.0125
     17 C           5.5600   -0.0451    0.0016 C.ar    1  LIG1       -0.0477
     18 C           3.4843    1.1831   -0.0005 C.ar    1  LIG1       -0.0042
     19 C           6.2742    1.1510    0.0017 C.ar    1  LIG1       -0.0578
     20 H           6.0950   -0.9922    0.0024 H       1  LIG1        0.0629
     21 C           4.1968    2.3775   -0.0004 C.ar    1  LIG1       -0.0501
     22 C           5.5955    2.3702    0.0006 C.ar    1  LIG1       -0.0498
     23 H           3.6591    3.3222   -0.0009 H       1  LIG1        0.0627
     24 H           7.5740    1.1267    0.0029 H       1  LIG1        0.0621
     25 S           3.5412   -1.2064   -0.0001 S.3     1  LIG1       -0.1420
     26 H           4.4260   -2.1725   -0.0002 H       1  LIG1        0.1071
     27 C           6.2563    3.4901    0.0008 C.3     1  LIG1       -0.0397
     28 H           5.6851    4.2412    0.5053 H       1  LIG1        0.0278
     29 H           6.4376    3.7975   -1.0080 H       1  LIG1        0.0278
     30 H           7.1900    3.3532    0.5052 H       1  LIG1        0.0278
@<TRIPOS>BOND
     1    14    12    1
     2    29    27    1
     3    12     7    1
     4    12    15    1
     5    12    13    1
     6    23    21    1
     7     7     4   ar
     8     7     6   ar
     9    18    21   ar
    10    18     4    1
    11    18    16   ar
    12    21    22   ar
    13     4     2   ar
    14     6     8    1
    15     6     3   ar
    16    26    25    1
    17    25    16    1
    18     2     1   ar
    19     2     5    1
    20     3     1   ar
    21     3     9    1
    22     1    10    1
    23    16    17   ar
    24    10    11    1
    25    22    27    1
    26    22    19   ar
    27    27    30    1
    28    27    28    1
    29    17    19   ar
    30    17    20    1
    31    19    24    1
