@<TRIPOS>MOLECULE
mol_data/noopt/geoms/mol2/4gi4gi-4gi-.out
 44 46 0 0 0
SMALL
GASTEIGER

@<TRIPOS>ATOM
      1 C           0.0509    0.0309    0.0002 C.ar    1  LIG1        0.0053
      2 C           1.4592    0.0309    0.0002 C.ar    1  LIG1       -0.0406
      3 C          -0.6045    1.2792    0.0002 C.ar    1  LIG1       -0.0483
      4 C           2.1849    1.2200   -0.0004 C.ar    1  LIG1       -0.0129
      5 H           1.9850   -0.9213    0.0004 H       1  LIG1        0.0635
      6 C           0.1195    2.4666   -0.0004 C.ar    1  LIG1       -0.0572
      7 C           1.5181    2.4458   -0.0008 C.ar    1  LIG1       -0.0426
      8 H          -0.4090    3.4165   -0.0003 H       1  LIG1        0.0621
      9 H          -1.9035    1.3287    0.0016 H       1  LIG1        0.0629
     10 S          -0.5708   -1.1107    0.0005 S.3     1  LIG1       -0.1426
     11 H           0.3045   -2.0853    0.0006 H       1  LIG1        0.1071
     12 C           2.1897    3.5592   -0.0012 C.3     1  LIG1       -0.0391
     13 H           1.6260    4.3160    0.5031 H       1  LIG1        0.0278
     14 H           2.3738    3.8644   -1.0102 H       1  LIG1        0.0278
     15 H           3.1221    3.4135    0.5030 H       1  LIG1        0.0278
     16 C           4.1518   -0.0586    0.0215 C.ar    1  LIG1        0.0130
     17 C           5.5600   -0.0449    0.0220 C.ar    1  LIG1       -0.0400
     18 C           3.4843    1.1831   -0.0005 C.ar    1  LIG1       -0.0042
     19 C           6.2742    1.1510    0.0009 C.ar    1  LIG1       -0.0129
     20 H           6.0951   -0.9918    0.0390 H       1  LIG1        0.0635
     21 C           4.1968    2.3773   -0.0216 C.ar    1  LIG1       -0.0495
     22 C           5.5955    2.3701   -0.0212 C.ar    1  LIG1       -0.0421
     23 H           3.6591    3.3219   -0.0383 H       1  LIG1        0.0627
     24 S           3.5412   -1.2060    0.0416 S.3     1  LIG1       -0.1420
     25 H           4.4259   -2.1721    0.0483 H       1  LIG1        0.1071
     26 C           6.2563    3.4898   -0.0408 C.3     1  LIG1       -0.0391
     27 H           5.6890    4.2475    0.4582 H       1  LIG1        0.0278
     28 H           6.4298    3.7839   -1.0549 H       1  LIG1        0.0278
     29 H           7.1938    3.3594    0.4581 H       1  LIG1        0.0278
     30 C           8.2534   -0.1084    0.0245 C.ar    1  LIG1        0.0125
     31 C           9.6614   -0.0811    0.0261 C.ar    1  LIG1       -0.0477
     32 C           7.5739    1.1267    0.0018 C.ar    1  LIG1       -0.0042
     33 C          10.3639    1.1217    0.0055 C.ar    1  LIG1       -0.0578
     34 H          10.2056   -1.0227    0.0436 H       1  LIG1        0.0629
     35 C           8.2747    2.3278   -0.0187 C.ar    1  LIG1       -0.0501
     36 C           9.6734    2.3341   -0.0171 C.ar    1  LIG1       -0.0498
     37 H           7.7279    3.2671   -0.0358 H       1  LIG1        0.0627
     38 H          11.6639    1.1101    0.0076 H       1  LIG1        0.0621
     39 S           7.6539   -1.2617    0.0440 S.3     1  LIG1       -0.1420
     40 H           8.5480   -2.2192    0.0506 H       1  LIG1        0.1071
     41 C          10.3233    3.4602   -0.0362 C.3     1  LIG1       -0.0397
     42 H           9.7487    4.2122    0.4629 H       1  LIG1        0.0278
     43 H          10.4942    3.7563   -1.0502 H       1  LIG1        0.0278
     44 H          11.2620    3.3388    0.4628 H       1  LIG1        0.0278
@<TRIPOS>BOND
     1    28    26    1
     2    43    41    1
     3    14    12    1
     4    26    22    1
     5    26    29    1
     6    26    27    1
     7    23    21    1
     8    41    36    1
     9    41    44    1
    10    41    42    1
    11    37    35    1
    12    21    22   ar
    13    21    18   ar
    14    22    19   ar
    15    35    36   ar
    16    35    32   ar
    17    36    33   ar
    18    12     7    1
    19    12    15    1
    20    12    13    1
    21     7     6   ar
    22     7     4   ar
    23    18     4    1
    24    18    16   ar
    25     6     8    1
    26     6     3   ar
    27     4     2   ar
    28     1     2   ar
    29     1     3   ar
    30     1    10    1
    31     2     5    1
    32     3     9    1
    33    10    11    1
    34    19    32    1
    35    19    17   ar
    36    32    30   ar
    37    33    38    1
    38    33    31   ar
    39    16    17   ar
    40    16    24    1
    41    17    20    1
    42    30    31   ar
    43    30    39    1
    44    31    34    1
    45    24    25    1
    46    39    40    1
