@<TRIPOS>MOLECULE
mol_data/noopt/geoms/mol2/4gi4gi-.out
 30 31 0 0 0
SMALL
GASTEIGER

@<TRIPOS>ATOM
      1 C           0.0509    0.0309    0.0002 C.ar    1  LIG1        0.0053
      2 C           1.4592    0.0309    0.0002 C.ar    1  LIG1       -0.0406
      3 C          -0.6045    1.2792    0.0002 C.ar    1  LIG1       -0.0483
      4 C           2.1849    1.2200   -0.0004 C.ar    1  LIG1       -0.0129
      5 H           1.9850   -0.9213    0.0004 H       1  LIG1        0.0635
      6 C           0.1195    2.4666   -0.0004 C.ar    1  LIG1       -0.0572
      7 C           1.5181    2.4458   -0.0008 C.ar    1  LIG1       -0.0426
      8 H          -0.4090    3.4165   -0.0003 H       1  LIG1        0.0621
      9 H          -1.9035    1.3287    0.0016 H       1  LIG1        0.0629
     10 S          -0.5708   -1.1107    0.0005 S.3     1  LIG1       -0.1426
     11 H           0.3045   -2.0853    0.0006 H       1  LIG1        0.1071
     12 C           2.1897    3.5592   -0.0012 C.3     1  LIG1       -0.0391
     13 H           1.6260    4.3160    0.5031 H       1  LIG1        0.0278
     14 H           2.3738    3.8644   -1.0102 H       1  LIG1        0.0278
     15 H           3.1221    3.4135    0.5030 H       1  LIG1        0.0278
     16 C           4.1518   -0.0586    0.0215 C.ar    1  LIG1        0.0125
     17 C           5.5600   -0.0449    0.0220 C.ar    1  LIG1       -0.0477
     18 C           3.4843    1.1831   -0.0005 C.ar    1  LIG1       -0.0042
     19 C           6.2742    1.1510    0.0009 C.ar    1  LIG1       -0.0578
     20 H           6.0951   -0.9918    0.0390 H       1  LIG1        0.0629
     21 C           4.1968    2.3773   -0.0216 C.ar    1  LIG1       -0.0501
     22 C           5.5955    2.3701   -0.0212 C.ar    1  LIG1       -0.0498
     23 H           3.6591    3.3219   -0.0383 H       1  LIG1        0.0627
     24 H           7.5740    1.1267    0.0018 H       1  LIG1        0.0621
     25 S           3.5412   -1.2060    0.0416 S.3     1  LIG1       -0.1420
     26 H           4.4259   -2.1721    0.0483 H       1  LIG1        0.1071
     27 C           6.2563    3.4898   -0.0408 C.3     1  LIG1       -0.0397
     28 H           5.6890    4.2475    0.4582 H       1  LIG1        0.0278
     29 H           6.4298    3.7839   -1.0549 H       1  LIG1        0.0278
     30 H           7.1938    3.3594    0.4581 H       1  LIG1        0.0278
@<TRIPOS>BOND
     1    29    27    1
     2    14    12    1
     3    27    22    1
     4    27    30    1
     5    27    28    1
     6    23    21    1
     7    21    22   ar
     8    21    18   ar
     9    22    19   ar
    10    12     7    1
    11    12    15    1
    12    12    13    1
    13     7     6   ar
    14     7     4   ar
    15    18     4    1
    16    18    16   ar
    17     6     8    1
    18     6     3   ar
    19     4     2   ar
    20     1     3   ar
    21     1     2   ar
    22     1    10    1
    23     3     9    1
    24     2     5    1
    25    10    11    1
    26    19    24    1
    27    19    17   ar
    28    16    17   ar
    29    16    25    1
    30    17    20    1
    31    25    26    1
