@<TRIPOS>MOLECULE
mol_data/noopt/geoms/mol2/4gi4gi4gi-4gi-.out
 58 61 0 0 0
SMALL
GASTEIGER

@<TRIPOS>ATOM
      1 C           0.0509    0.0309    0.0002 C.ar    1  LIG1        0.0053
      2 C           1.4592    0.0309    0.0002 C.ar    1  LIG1       -0.0406
      3 C          -0.6045    1.2792    0.0002 C.ar    1  LIG1       -0.0483
      4 C           2.1849    1.2200   -0.0004 C.ar    1  LIG1       -0.0129
      5 H           1.9850   -0.9213    0.0004 H       1  LIG1        0.0635
      6 C           0.1195    2.4666   -0.0004 C.ar    1  LIG1       -0.0572
      7 C           1.5181    2.4458   -0.0008 C.ar    1  LIG1       -0.0426
      8 H          -0.4090    3.4165   -0.0003 H       1  LIG1        0.0621
      9 H          -1.9035    1.3287    0.0016 H       1  LIG1        0.0629
     10 S          -0.5708   -1.1107    0.0005 S.3     1  LIG1       -0.1426
     11 H           0.3045   -2.0853    0.0006 H       1  LIG1        0.1071
     12 C           2.1897    3.5592   -0.0012 C.3     1  LIG1       -0.0391
     13 H           1.6260    4.3160    0.5031 H       1  LIG1        0.0278
     14 H           2.3738    3.8644   -1.0102 H       1  LIG1        0.0278
     15 H           3.1221    3.4135    0.5030 H       1  LIG1        0.0278
     16 C           4.1518   -0.0588    0.0002 C.ar    1  LIG1        0.0130
     17 C           5.5600   -0.0451    0.0016 C.ar    1  LIG1       -0.0400
     18 C           3.4843    1.1831   -0.0005 C.ar    1  LIG1       -0.0042
     19 C           6.2742    1.1510    0.0017 C.ar    1  LIG1       -0.0129
     20 H           6.0950   -0.9922    0.0024 H       1  LIG1        0.0635
     21 C           4.1968    2.3775   -0.0004 C.ar    1  LIG1       -0.0495
     22 C           5.5955    2.3702    0.0006 C.ar    1  LIG1       -0.0421
     23 H           3.6591    3.3222   -0.0009 H       1  LIG1        0.0627
     24 S           3.5412   -1.2064   -0.0001 S.3     1  LIG1       -0.1420
     25 H           4.4260   -2.1725   -0.0002 H       1  LIG1        0.1071
     26 C           6.2563    3.4901    0.0008 C.3     1  LIG1       -0.0391
     27 H           5.6851    4.2412    0.5053 H       1  LIG1        0.0278
     28 H           6.4376    3.7975   -1.0080 H       1  LIG1        0.0278
     29 H           7.1900    3.3532    0.5052 H       1  LIG1        0.0278
     30 C           8.2534   -0.1085    0.0256 C.ar    1  LIG1        0.0130
     31 C           9.6614   -0.0811    0.0275 C.ar    1  LIG1       -0.0400
     32 C           7.5739    1.1267    0.0029 C.ar    1  LIG1       -0.0042
     33 C          10.3639    1.1216    0.0070 C.ar    1  LIG1       -0.0129
     34 H          10.2055   -1.0228    0.0451 H       1  LIG1        0.0635
     35 C           8.2747    2.3277   -0.0175 C.ar    1  LIG1       -0.0495
     36 C           9.6735    2.3341   -0.0157 C.ar    1  LIG1       -0.0421
     37 H           7.7279    3.2670   -0.0348 H       1  LIG1        0.0627
     38 S           7.6539   -1.2618    0.0451 S.3     1  LIG1       -0.1420
     39 H           8.5479   -2.2192    0.0516 H       1  LIG1        0.1071
     40 C          10.3234    3.4601   -0.0347 C.3     1  LIG1       -0.0391
     41 H           9.7487    4.2121    0.4644 H       1  LIG1        0.0278
     42 H          10.4942    3.7563   -1.0487 H       1  LIG1        0.0278
     43 H          11.2620    3.3386    0.4644 H       1  LIG1        0.0278
     44 C          12.3552   -0.1185    0.0326 C.ar    1  LIG1        0.0125
     45 C          13.7629   -0.0775    0.0357 C.ar    1  LIG1       -0.0477
     46 C          11.6638    1.1100    0.0093 C.ar    1  LIG1       -0.0042
     47 C          14.4537    1.1320    0.0158 C.ar    1  LIG1       -0.0578
     48 H          14.3162   -1.0138    0.0537 H       1  LIG1        0.0629
     49 C          12.3529    2.3178   -0.0105 C.ar    1  LIG1       -0.0501
     50 C          13.7516    2.3377   -0.0075 C.ar    1  LIG1       -0.0498
     51 H          11.7970    3.2517   -0.0283 H       1  LIG1        0.0627
     52 H          15.7537    1.1330    0.0192 H       1  LIG1        0.0621
     53 S          11.7670   -1.2776    0.0516 S.3     1  LIG1       -0.1420
     54 H          12.6703   -2.2263    0.0580 H       1  LIG1        0.1071
     55 C          14.3905    3.4700   -0.0260 C.3     1  LIG1       -0.0397
     56 H          13.8085    4.2162    0.4733 H       1  LIG1        0.0278
     57 H          14.5587    3.7682   -1.0398 H       1  LIG1        0.0278
     58 H          15.3302    3.3575    0.4732 H       1  LIG1        0.0278
@<TRIPOS>BOND
     1    42    40    1
     2    57    55    1
     3    14    12    1
     4    28    26    1
     5    37    35    1
     6    40    36    1
     7    40    43    1
     8    40    41    1
     9    51    49    1
    10    55    50    1
    11    55    58    1
    12    55    56    1
    13    35    36   ar
    14    35    32   ar
    15    36    33   ar
    16    49    50   ar
    17    49    46   ar
    18    50    47   ar
    19    12     7    1
    20    12    15    1
    21    12    13    1
    22    23    21    1
    23     7     4   ar
    24     7     6   ar
    25    18    21   ar
    26    18     4    1
    27    18    16   ar
    28    21    22   ar
    29     4     2   ar
    30     6     8    1
    31     6     3   ar
    32    25    24    1
    33    24    16    1
    34     1     2   ar
    35     1     3   ar
    36     1    10    1
    37     2     5    1
    38     3     9    1
    39    16    17   ar
    40    10    11    1
    41    22    26    1
    42    22    19   ar
    43    26    29    1
    44    26    27    1
    45    17    19   ar
    46    17    20    1
    47    19    32    1
    48    32    30   ar
    49    33    46    1
    50    33    31   ar
    51    46    44   ar
    52    47    52    1
    53    47    45   ar
    54    30    31   ar
    55    30    38    1
    56    31    34    1
    57    44    45   ar
    58    44    53    1
    59    45    48    1
    60    38    39    1
    61    53    54    1
