@<TRIPOS>MOLECULE
mol_data/noopt/geoms/mol2/4ha13df(320)12ia(70)6ah(190).out
 45 48 0 0 0
SMALL
GASTEIGER

@<TRIPOS>ATOM
      1 C           0.0509    0.0309    0.0002 C.ar    1  LIG1        0.0252
      2 C           1.4592    0.0309    0.0002 C.ar    1  LIG1       -0.0319
      3 C          -0.6045    1.2792    0.0002 C.ar    1  LIG1       -0.0410
      4 C           2.1849    1.2200   -0.0004 C.ar    1  LIG1        0.0014
      5 H           1.9850   -0.9213    0.0004 H       1  LIG1        0.0642
      6 C           0.1195    2.4666   -0.0004 C.ar    1  LIG1       -0.0594
      7 C           1.5181    2.4458   -0.0008 C.ar    1  LIG1       -0.0525
      8 H          -0.4090    3.4165   -0.0003 H       1  LIG1        0.0618
      9 H          -1.9035    1.3287    0.0016 H       1  LIG1        0.0636
     10 N          -0.5709   -1.1108    0.0005 N.pl3   1  LIG1       -0.3579
     11 H          -1.4474   -1.0131   -0.4708 H       1  LIG1        0.1423
     12 H          -0.0133   -1.7941   -0.4709 H       1  LIG1        0.1423
     13 H           2.1896    3.5590   -0.0012 H       1  LIG1        0.0624
     14 C           3.4844    1.1831   -0.0005 C.ar    1  LIG1        0.0683
     15 C           4.3427    0.3398   -0.6330 C.ar    1  LIG1        0.1190
     16 C           5.6722    0.7456   -0.2891 C.ar    1  LIG1        0.1631
     17 C           5.5679    1.8202    0.5370 C.ar    1  LIG1        0.1261
     18 N           4.2302    2.0911    0.7167 N.ar    1  LIG1       -0.3478
     19 H           3.8614    2.8260    1.2752 H       1  LIG1        0.1661
     20 N           3.7229   -1.5274   -2.0874 N.1     1  LIG1       -0.1907
     21 C           4.0134   -0.6524   -1.4058 C.1     1  LIG1        0.1050
     22 O           6.7775    0.1916   -0.6911 O.3     1  LIG1       -0.5034
     23 H           7.4554    0.8641   -0.7902 H       1  LIG1        0.2923
     24 C           6.4893    2.5360    1.1103 C.ar    1  LIG1        0.1583
     25 C           7.1029    2.5427    2.3458 C.ar    1  LIG1       -0.0025
     26 C           8.0622    3.6272    2.3266 C.ar    1  LIG1       -0.0122
     27 C           7.9712    4.2116    1.0801 C.ar    1  LIG1        0.1375
     28 O           7.0082    3.5563    0.3119 O.2     1  LIG1       -0.4529
     29 C           6.8826    1.7442    3.3482 C.3     1  LIG1       -0.0360
     30 H           7.7677    1.6676    3.9444 H       1  LIG1        0.0279
     31 H           6.6153    0.7755    2.9805 H       1  LIG1        0.0279
     32 H           6.0833    2.1324    3.9444 H       1  LIG1        0.0279
     33 H           8.8454    3.9635    3.3083 H       1  LIG1        0.0658
     34 C           9.9580    5.2174    0.3321 C.ar    1  LIG1        0.0383
     35 C           8.5585    5.2017    0.4761 C.ar    1  LIG1        0.0371
     36 C           7.8229    6.2687   -0.0428 C.ar    1  LIG1       -0.0274
     37 C           8.5035    7.3063   -0.6821 C.ar    1  LIG1        0.0436
     38 C           9.9054    7.2320   -0.7764 C.ar    1  LIG1        0.0482
     39 N          10.6308    6.2101   -0.2817 N.ar    1  LIG1       -0.2607
     40 H           6.7279    6.2917    0.0516 H       1  LIG1        0.0644
     41 H          10.5837    8.1734   -1.3625 H       1  LIG1        0.0848
     42 H          10.6860    4.2466    0.7984 H       1  LIG1        0.0837
     43 N           7.8642    8.3220   -1.1818 N.pl3   1  LIG1       -0.3568
     44 H           8.4878    8.8640   -1.7451 H       1  LIG1        0.1424
     45 H           7.1058    7.9942   -1.7451 H       1  LIG1        0.1424
@<TRIPOS>BOND
     1    20    21    3
     2    45    43    1
     3    44    43    1
     4    21    15    1
     5    41    38    1
     6    43    37    1
     7    23    22    1
     8    38    37   ar
     9    38    39   ar
    10    22    16    1
    11    37    36   ar
    12    15    16   ar
    13    15    14   ar
    14    12    10    1
    15    11    10    1
    16    16    17   ar
    17    39    34   ar
    18    36    40    1
    19    36    35   ar
    20    13     7    1
    21     7     4   ar
    22     7     6   ar
    23    14     4    1
    24    14    18   ar
    25     4     2   ar
    26     6     8    1
    27     6     3   ar
    28     3     1   ar
    29     3     9    1
    30     2     1   ar
    31     2     5    1
    32     1    10    1
    33    28    27   ar
    34    28    24   ar
    35    34    35   ar
    36    34    42    1
    37    35    27    1
    38    17    18   ar
    39    17    24    1
    40    18    19    1
    41    27    26   ar
    42    24    25   ar
    43    26    25   ar
    44    26    33    1
    45    25    29    1
    46    31    29    1
    47    29    32    1
    48    29    30    1
