@<TRIPOS>MOLECULE
mol_data/noopt/geoms/mol2/4ha13hd(220)4fe(310)13ei(110).out
 51 55 0 0 0
SMALL
GASTEIGER

@<TRIPOS>ATOM
      1 C           0.0509    0.0309    0.0002 C.ar    1  LIG1        0.0252
      2 C           1.4592    0.0309    0.0002 C.ar    1  LIG1       -0.0319
      3 C          -0.6045    1.2792    0.0002 C.ar    1  LIG1       -0.0410
      4 C           2.1849    1.2200   -0.0004 C.ar    1  LIG1        0.0019
      5 H           1.9850   -0.9213    0.0004 H       1  LIG1        0.0642
      6 C           0.1195    2.4666   -0.0004 C.ar    1  LIG1       -0.0594
      7 C           1.5181    2.4458   -0.0008 C.ar    1  LIG1       -0.0525
      8 H          -0.4090    3.4165   -0.0003 H       1  LIG1        0.0618
      9 H          -1.9035    1.3287    0.0016 H       1  LIG1        0.0636
     10 N          -0.5709   -1.1108    0.0005 N.pl3   1  LIG1       -0.3579
     11 H          -1.4474   -1.0131   -0.4708 H       1  LIG1        0.1423
     12 H          -0.0133   -1.7941   -0.4709 H       1  LIG1        0.1423
     13 H           2.1896    3.5590   -0.0012 H       1  LIG1        0.0624
     14 C           3.4844    1.1831   -0.0005 C.ar    1  LIG1        0.0692
     15 C           4.3892    1.9769   -0.6323 C.ar    1  LIG1        0.0684
     16 C           5.6935    1.4946   -0.2906 C.ar    1  LIG1        0.0979
     17 C           5.5284    0.4283    0.5364 C.ar    1  LIG1        0.0655
     18 N           4.1775    0.2339    0.7163 N.ar    1  LIG1       -0.3518
     19 H           3.7676   -0.4784    1.2754 H       1  LIG1        0.1660
     20 N           4.1167    2.9862   -1.4050 N.pl3   1  LIG1       -0.3553
     21 H           4.9081    3.1873   -1.9822 H       1  LIG1        0.1424
     22 H           3.3316    2.7617   -1.9822 H       1  LIG1        0.1424
     23 N           7.8292    2.4151   -1.0503 N.1     1  LIG1       -0.1907
     24 C           6.8283    1.9837   -0.6942 C.1     1  LIG1        0.1031
     25 C           6.6758   -1.6176    0.5775 C.3     1  LIG1        0.1480
     26 C           7.6356   -2.4114    1.2347 C.2     1  LIG1       -0.0382
     27 C           6.4076   -0.3394    1.1086 C.2     1  LIG1        0.0169
     28 C           8.3006   -1.9547    2.3704 C.2     1  LIG1       -0.0025
     29 H           7.8576   -3.4011    0.8417 H       1  LIG1        0.0609
     30 C           7.0712    0.1171    2.2424 C.2     1  LIG1       -0.0383
     31 C           8.0217   -0.6863    2.8809 C.2     1  LIG1        0.0229
     32 H           6.8468    1.1065    2.6327 H       1  LIG1        0.0634
     33 O           6.0886   -2.0983   -0.4781 O.3     1  LIG1       -0.3762
     34 H           6.5172   -2.9170   -0.7382 H       1  LIG1        0.2112
     35 C           8.6387   -0.2543    3.9404 C.1     1  LIG1       -0.1111
     36 C           9.2089    0.1449    4.9195 C.2     1  LIG1       -0.0113
     37 H           9.7167    0.5004    5.7916 H       1  LIG1        0.0712
     38 C           9.1810   -2.7140    2.9520 C.3     1  LIG1        0.1210
     39 C           9.7005   -2.6602    4.2071 C.2     1  LIG1        0.0291
     40 C          10.6357   -3.7377    4.3294 C.2     1  LIG1       -0.0237
     41 C          10.6453   -4.4037    3.1442 C.2     1  LIG1       -0.0058
     42 N           9.7564   -3.7799    2.2980 N.pl3   1  LIG1       -0.3334
     43 H           9.5607   -4.0559    1.3633 H       1  LIG1        0.1468
     44 H          11.3258   -5.4452    2.7673 H       1  LIG1        0.0781
     45 C           9.4020   -1.7885    5.1242 C.1     1  LIG1       -0.1129
     46 C           9.1262   -0.9831    5.9716 C.2     1  LIG1       -0.0115
     47 H           8.8805   -0.2656    6.7264 H       1  LIG1        0.0712
     48 C          11.3462   -4.0290    5.3787 C.3     1  LIG1       -0.0376
     49 H          11.4957   -3.1461    5.9645 H       1  LIG1        0.0278
     50 H          12.2944   -4.4176    5.0709 H       1  LIG1        0.0278
     51 H          10.8330   -4.7629    5.9644 H       1  LIG1        0.0278
@<TRIPOS>BOND
     1    22    20    1
     2    21    20    1
     3    20    15    1
     4    23    24    3
     5    34    33    1
     6    24    16    1
     7    15    16   ar
     8    15    14   ar
     9    33    25    1
    10    12    10    1
    11    11    10    1
    12    16    17   ar
    13    13     7    1
    14     7     6   ar
    15     7     4   ar
    16    14     4    1
    17    14    18   ar
    18     6     8    1
    19     6     3   ar
    20     4     2   ar
    21     3     1   ar
    22     3     9    1
    23     1     2   ar
    24     1    10    1
    25     2     5    1
    26    17    18   ar
    27    17    27    1
    28    25    27    1
    29    25    26    1
    30    18    19    1
    31    29    26    1
    32    27    30    2
    33    26    28    2
    34    43    42    1
    35    30    32    1
    36    30    31    1
    37    42    38    1
    38    42    41    1
    39    28    31    1
    40    28    38    1
    41    44    41    1
    42    31    35    2
    43    38    39    1
    44    41    40    2
    45    35    36    2
    46    39    40    1
    47    39    45    2
    48    40    48    1
    49    36    37    1
    50    36    46    1
    51    50    48    1
    52    45    46    2
    53    48    51    1
    54    48    49    1
    55    46    47    1
