@<TRIPOS>MOLECULE
mol_data/noopt/geoms/mol2/4ha12hl6hl12df.out
 51 54 0 0 0
SMALL
GASTEIGER

@<TRIPOS>ATOM
      1 C           0.0509    0.0309    0.0002 C.ar    1  LIG1        0.0252
      2 C           1.4592    0.0309    0.0002 C.ar    1  LIG1       -0.0303
      3 C          -0.6045    1.2792    0.0002 C.ar    1  LIG1       -0.0410
      4 C           2.1849    1.2200   -0.0004 C.ar    1  LIG1        0.0210
      5 H           1.9850   -0.9213    0.0004 H       1  LIG1        0.0643
      6 C           0.1195    2.4666   -0.0004 C.ar    1  LIG1       -0.0594
      7 C           1.5181    2.4458   -0.0008 C.ar    1  LIG1       -0.0509
      8 H          -0.4090    3.4165   -0.0003 H       1  LIG1        0.0618
      9 H          -1.9035    1.3287    0.0016 H       1  LIG1        0.0636
     10 N          -0.5709   -1.1108    0.0005 N.pl3   1  LIG1       -0.3579
     11 H          -1.4474   -1.0131   -0.4708 H       1  LIG1        0.1423
     12 H          -0.0133   -1.7941   -0.4709 H       1  LIG1        0.1423
     13 H           2.1896    3.5590   -0.0012 H       1  LIG1        0.0625
     14 C           3.4844    1.1831   -0.0005 C.ar    1  LIG1        0.1600
     15 C           4.4399    0.1881   -0.0006 C.ar    1  LIG1        0.1139
     16 C           5.7279    0.8499   -0.0007 C.ar    1  LIG1        0.1871
     17 C           5.4738    2.2061   -0.0008 C.ar    1  LIG1        0.1824
     18 O           4.0977    2.4367   -0.0007 O.2     1  LIG1       -0.4490
     19 N           4.2495   -1.0979   -0.0005 N.pl3   1  LIG1       -0.3522
     20 H           3.3930   -1.3081   -0.4718 H       1  LIG1        0.1425
     21 H           5.0083   -1.5472   -0.4719 H       1  LIG1        0.1425
     22 O           6.8846    0.2566   -0.0008 O.3     1  LIG1       -0.4896
     23 C           6.6940   -1.1607   -0.0009 C.3     1  LIG1        0.0791
     24 H           7.6463   -1.6487   -0.0011 H       1  LIG1        0.0660
     25 H           6.1467   -1.4471    0.8729 H       1  LIG1        0.0660
     26 H           6.1464   -1.4469   -0.8744 H       1  LIG1        0.0660
     27 C           5.5900    4.5523   -0.0007 C.ar    1  LIG1        0.1281
     28 C           6.1999    3.2844   -0.0008 C.ar    1  LIG1        0.0640
     29 C           7.5942    3.2153   -0.0007 C.ar    1  LIG1       -0.0036
     30 C           8.3260    4.4040   -0.0006 C.ar    1  LIG1        0.1498
     31 C           7.6251    5.6240   -0.0007 C.ar    1  LIG1        0.1509
     32 N           6.2805    5.7091   -0.0006 N.ar    1  LIG1       -0.2249
     33 H           8.1062    2.2426   -0.0018 H       1  LIG1        0.0663
     34 N           4.2952    4.6681   -0.0007 N.pl3   1  LIG1       -0.3426
     35 H           4.0359    5.5110   -0.4721 H       1  LIG1        0.1437
     36 H           3.8905    3.8846   -0.4721 H       1  LIG1        0.1437
     37 O           9.6260    4.3930   -0.0007 O.3     1  LIG1       -0.4928
     38 C          10.0918    3.0410   -0.0008 C.3     1  LIG1        0.0789
     39 H          11.1618    3.0324   -0.0010 H       1  LIG1        0.0660
     40 H           9.7313    2.5395    0.8730 H       1  LIG1        0.0660
     41 H           9.7309    2.5395   -0.8743 H       1  LIG1        0.0660
     42 C           8.2619    6.7574   -0.0005 C.ar    1  LIG1        0.1776
     43 C           9.5870    7.1408    0.0144 C.ar    1  LIG1        0.1404
     44 C           9.5999    8.5888    0.0038 C.ar    1  LIG1        0.1729
     45 C           8.2813    8.9943   -0.0169 C.ar    1  LIG1        0.1353
     46 O           7.4373    7.8831   -0.0201 O.2     1  LIG1       -0.4562
     47 H           7.6642   10.1383   -0.0336 H       1  LIG1        0.1068
     48 N          11.5629    5.6986    0.0517 N.1     1  LIG1       -0.1906
     49 C          10.6369    6.3745    0.0342 C.1     1  LIG1        0.1067
     50 O          10.6630    9.3371    0.0125 O.3     1  LIG1       -0.5028
     51 H          10.4041   10.2615    0.0147 H       1  LIG1        0.2923
@<TRIPOS>BOND
     1    26    23    1
     2    41    38    1
     3    36    34    1
     4    35    34    1
     5    21    19    1
     6    20    19    1
     7    12    10    1
     8    11    10    1
     9    47    45    1
    10    46    45   ar
    11    46    42   ar
    12    45    44   ar
    13    33    29    1
    14    13     7    1
    15    24    23    1
    16    39    38    1
    17    23    22    1
    18    23    25    1
    19    28    17    1
    20    28    27   ar
    21    28    29   ar
    22     7     6   ar
    23     7     4   ar
    24    38    37    1
    25    38    40    1
    26    22    16    1
    27    17    18   ar
    28    17    16   ar
    29    18    14   ar
    30    34    27    1
    31    31    32   ar
    32    31    30   ar
    33    31    42    1
    34    16    15   ar
    35    27    32   ar
    36    29    30   ar
    37    37    30    1
    38    15    14   ar
    39    15    19    1
    40    42    43   ar
    41    14     4    1
    42     6     8    1
    43     6     3   ar
    44     4     2   ar
    45     1     3   ar
    46     1     2   ar
    47     1    10    1
    48     3     9    1
    49     2     5    1
    50    44    50    1
    51    44    43   ar
    52    50    51    1
    53    43    49    1
    54    49    48    3
