@<TRIPOS>MOLECULE
mol_data/noopt/geoms/mol2/4ha12ed(80)13ef(250)4ef(350).out
 48 51 0 0 0
SMALL
GASTEIGER

@<TRIPOS>ATOM
      1 C           0.0509    0.0309    0.0002 C.ar    1  LIG1        0.0252
      2 C           1.4592    0.0309    0.0002 C.ar    1  LIG1       -0.0303
      3 C          -0.6045    1.2792    0.0002 C.ar    1  LIG1       -0.0410
      4 C           2.1849    1.2200   -0.0004 C.ar    1  LIG1        0.0203
      5 H           1.9850   -0.9213    0.0004 H       1  LIG1        0.0643
      6 C           0.1195    2.4666   -0.0004 C.ar    1  LIG1       -0.0594
      7 C           1.5181    2.4458   -0.0008 C.ar    1  LIG1       -0.0509
      8 H          -0.4090    3.4165   -0.0003 H       1  LIG1        0.0618
      9 H          -1.9035    1.3287    0.0016 H       1  LIG1        0.0636
     10 N          -0.5709   -1.1108    0.0005 N.pl3   1  LIG1       -0.3579
     11 H          -1.4474   -1.0131   -0.4708 H       1  LIG1        0.1423
     12 H          -0.0133   -1.7941   -0.4709 H       1  LIG1        0.1423
     13 H           2.1896    3.5590   -0.0012 H       1  LIG1        0.0625
     14 C           3.4844    1.1831   -0.0005 C.ar    1  LIG1        0.1524
     15 C           4.4620    0.9644    0.9479 C.ar    1  LIG1        0.0884
     16 C           5.7340    1.0660    0.2634 C.ar    1  LIG1        0.1149
     17 C           5.4492    1.3402   -1.0585 C.ar    1  LIG1        0.1716
     18 O           4.0687    1.4171   -1.2461 O.2     1  LIG1       -0.4507
     19 C           4.3011    0.7142    2.2134 C.1     1  LIG1       -0.0645
     20 C           4.1525    0.4830    3.3827 C.1     1  LIG1       -0.1138
     21 H           4.0201    0.2771    4.4243 H       1  LIG1        0.1232
     22 N           7.9350    0.7954    1.2969 N.1     1  LIG1       -0.1907
     23 C           6.9035    0.9222    0.8126 C.1     1  LIG1        0.1043
     24 C           6.1501    1.5372   -2.1355 C.ar    1  LIG1        0.1031
     25 C           5.7555    1.8221   -3.4047 C.ar    1  LIG1        0.0949
     26 C           6.9378    1.9385   -4.2042 C.ar    1  LIG1        0.1582
     27 C           8.0030    1.7214   -3.3880 C.ar    1  LIG1        0.0915
     28 N           7.5252    1.4748   -2.1206 N.ar    1  LIG1       -0.3478
     29 H           8.0844    1.2829   -1.3216 H       1  LIG1        0.1661
     30 C           4.5294    1.9610   -3.8140 C.1     1  LIG1       -0.0637
     31 C           3.3965    2.0893   -4.1921 C.1     1  LIG1       -0.1137
     32 H           2.3874    2.2036   -4.5290 H       1  LIG1        0.1232
     33 O           6.9875    2.2034   -5.4760 O.3     1  LIG1       -0.5035
     34 H           6.1103    2.4355   -5.7895 H       1  LIG1        0.2923
     35 C           9.9227    0.5160   -3.9928 C.ar    1  LIG1        0.0341
     36 C          11.3042    0.5676   -4.2616 C.ar    1  LIG1       -0.0423
     37 C           9.2771    1.7205   -3.6460 C.ar    1  LIG1        0.0207
     38 C          12.0133    1.7645   -4.1895 C.ar    1  LIG1       -0.0190
     39 H          11.8221   -0.3502   -4.5308 H       1  LIG1        0.0631
     40 C           9.9846    2.9156   -3.5739 C.ar    1  LIG1       -0.0098
     41 C          11.3565    2.9464   -3.8449 C.ar    1  LIG1        0.1176
     42 H           9.4641    3.8310   -3.3043 H       1  LIG1        0.0661
     43 H          13.2881    1.7758   -4.4442 H       1  LIG1        0.0654
     44 C           9.3154   -0.6303   -4.0766 C.1     1  LIG1       -0.0690
     45 C           8.7542   -1.6896   -4.1540 C.1     1  LIG1       -0.1139
     46 H           8.2544   -2.6331   -4.2230 H       1  LIG1        0.1232
     47 O          12.0126    4.0666   -3.7758 O.3     1  LIG1       -0.5067
     48 H          11.3935    4.8001   -3.7588 H       1  LIG1        0.2921
@<TRIPOS>BOND
     1    34    33    1
     2    33    26    1
     3    39    36    1
     4    32    31    1
     5    43    38    1
     6    36    38   ar
     7    36    35   ar
     8    46    45    1
     9    26    25   ar
    10    26    27   ar
    11    31    30    3
    12    38    41   ar
    13    45    44    3
    14    44    35    1
    15    35    37   ar
    16    41    47    1
    17    41    40   ar
    18    30    25    1
    19    47    48    1
    20    37    40   ar
    21    37    27    1
    22    40    42    1
    23    25    24   ar
    24    27    28   ar
    25    24    28   ar
    26    24    17    1
    27    28    29    1
    28    18    17   ar
    29    18    14   ar
    30    17    16   ar
    31    12    10    1
    32    11    10    1
    33    13     7    1
    34     7     6   ar
    35     7     4   ar
    36    14     4    1
    37    14    15   ar
    38     6     8    1
    39     6     3   ar
    40     4     2   ar
    41     3     1   ar
    42     3     9    1
    43     2     1   ar
    44     2     5    1
    45     1    10    1
    46    16    23    1
    47    16    15   ar
    48    23    22    3
    49    15    19    1
    50    19    20    3
    51    20    21    1
