@<TRIPOS>MOLECULE
mol_data/noopt/geoms/mol2/4ha13ea(120)13ia(260)6fi(20).out
 48 51 0 0 0
SMALL
GASTEIGER

@<TRIPOS>ATOM
      1 C           0.0509    0.0309    0.0002 C.ar    1  LIG1        0.0252
      2 C           1.4592    0.0309    0.0002 C.ar    1  LIG1       -0.0319
      3 C          -0.6045    1.2792    0.0002 C.ar    1  LIG1       -0.0410
      4 C           2.1849    1.2200   -0.0004 C.ar    1  LIG1        0.0012
      5 H           1.9850   -0.9213    0.0004 H       1  LIG1        0.0642
      6 C           0.1195    2.4666   -0.0004 C.ar    1  LIG1       -0.0594
      7 C           1.5181    2.4458   -0.0008 C.ar    1  LIG1       -0.0525
      8 H          -0.4090    3.4165   -0.0003 H       1  LIG1        0.0618
      9 H          -1.9035    1.3287    0.0016 H       1  LIG1        0.0636
     10 N          -0.5709   -1.1108    0.0005 N.pl3   1  LIG1       -0.3579
     11 H          -1.4474   -1.0131   -0.4708 H       1  LIG1        0.1423
     12 H          -0.0133   -1.7941   -0.4709 H       1  LIG1        0.1423
     13 H           2.1896    3.5590   -0.0012 H       1  LIG1        0.0624
     14 C           3.4844    1.1831   -0.0005 C.ar    1  LIG1        0.0626
     15 C           4.3816    1.7073    0.8759 C.ar    1  LIG1        0.0505
     16 C           5.6901    1.3729    0.3997 C.ar    1  LIG1       -0.0189
     17 C           5.5348    0.6576   -0.7458 C.ar    1  LIG1        0.0648
     18 N           4.1860    0.5395   -0.9948 N.ar    1  LIG1       -0.3520
     19 H           3.7828    0.0643   -1.7691 H       1  LIG1        0.1660
     20 C           4.0999    2.3877    1.9472 C.1     1  LIG1       -0.0675
     21 C           3.8397    3.0163    2.9371 C.1     1  LIG1       -0.1138
     22 H           3.6078    3.5764    3.8189 H       1  LIG1        0.1232
     23 H           6.8202    1.6921    0.9574 H       1  LIG1        0.0652
     24 C           6.4209    0.1345   -1.5404 C.ar    1  LIG1        0.0663
     25 C           6.5867    0.2634   -2.8834 C.ar    1  LIG1       -0.0232
     26 C           7.7202   -0.5300   -3.2526 C.ar    1  LIG1       -0.0327
     27 C           8.1983   -1.1075   -2.1186 C.ar    1  LIG1        0.0523
     28 N           7.4055   -0.7037   -1.0680 N.ar    1  LIG1       -0.3527
     29 H           7.5254   -0.9739   -0.1190 H       1  LIG1        0.1660
     30 C           5.8487    0.9757   -3.6828 C.3     1  LIG1       -0.0376
     31 H           4.8165    0.7578   -3.5042 H       1  LIG1        0.0278
     32 H           6.0925    0.7403   -4.6978 H       1  LIG1        0.0278
     33 H           6.0300    2.0150   -3.5042 H       1  LIG1        0.0278
     34 H           8.2057   -0.6737   -4.4499 H       1  LIG1        0.0642
     35 C          10.5124   -1.4886   -2.2536 C.ar    1  LIG1        0.2216
     36 C           9.2066   -1.9085   -1.9403 C.ar    1  LIG1        0.0599
     37 C           9.0236   -3.1976   -1.4367 C.ar    1  LIG1       -0.0432
     38 C          10.1408   -4.0167   -1.2646 C.ar    1  LIG1       -0.0315
     39 C          11.4066   -3.5066   -1.6071 C.ar    1  LIG1        0.0343
     40 N          11.6013   -2.2655   -2.0940 N.ar    1  LIG1       -0.2206
     41 H           8.0181   -3.5610   -1.1815 H       1  LIG1        0.0629
     42 H          12.4766   -4.2309   -1.4647 H       1  LIG1        0.0833
     43 O          10.7334   -0.2974   -2.7251 O.3     1  LIG1       -0.4919
     44 H           9.8981    0.1613   -2.8414 H       1  LIG1        0.2937
     45 C          10.0231   -5.2251   -0.7992 C.3     1  LIG1       -0.0383
     46 H          10.8778   -5.4616   -0.2005 H       1  LIG1        0.0278
     47 H           9.9558   -5.9160   -1.6135 H       1  LIG1        0.0278
     48 H           9.1387   -5.2921   -0.2006 H       1  LIG1        0.0278
@<TRIPOS>BOND
     1    32    30    1
     2    34    26    1
     3    30    33    1
     4    30    31    1
     5    30    25    1
     6    26    25   ar
     7    26    27   ar
     8    25    24   ar
     9    44    43    1
    10    43    35    1
    11    35    40   ar
    12    35    36   ar
    13    27    36    1
    14    27    28   ar
    15    40    39   ar
    16    36    37   ar
    17    19    18    1
    18    47    45    1
    19    39    42    1
    20    39    38   ar
    21    24    28   ar
    22    24    17    1
    23    37    38   ar
    24    37    41    1
    25    38    45    1
    26    28    29    1
    27    18    17   ar
    28    18    14   ar
    29    45    48    1
    30    45    46    1
    31    17    16   ar
    32    12    10    1
    33    11    10    1
    34    13     7    1
    35     7     4   ar
    36     7     6   ar
    37    14     4    1
    38    14    15   ar
    39     4     2   ar
    40     6     8    1
    41     6     3   ar
    42     1     2   ar
    43     1     3   ar
    44     1    10    1
    45     2     5    1
    46     3     9    1
    47    16    15   ar
    48    16    23    1
    49    15    20    1
    50    20    21    3
    51    21    22    1
