@<TRIPOS>MOLECULE
mol_data/noopt/geoms/mol2/4ha4aa(210)13dd12lh(240).out
 47 50 0 0 0
SMALL
GASTEIGER

@<TRIPOS>ATOM
      1 C           0.0509    0.0309    0.0002 C.ar    1  LIG1        0.0251
      2 C           1.4592    0.0309    0.0002 C.ar    1  LIG1       -0.0333
      3 C          -0.6045    1.2792    0.0002 C.ar    1  LIG1       -0.0410
      4 C           2.1849    1.2200   -0.0004 C.ar    1  LIG1       -0.0161
      5 H           1.9850   -0.9213    0.0004 H       1  LIG1        0.0642
      6 C           0.1195    2.4666   -0.0004 C.ar    1  LIG1       -0.0594
      7 C           1.5181    2.4458   -0.0008 C.ar    1  LIG1       -0.0539
      8 H          -0.4090    3.4165   -0.0003 H       1  LIG1        0.0618
      9 H          -1.9035    1.3287    0.0016 H       1  LIG1        0.0636
     10 N          -0.5709   -1.1108    0.0005 N.pl3   1  LIG1       -0.3579
     11 H          -1.4474   -1.0131   -0.4708 H       1  LIG1        0.1423
     12 H          -0.0133   -1.7941   -0.4709 H       1  LIG1        0.1423
     13 H           2.1896    3.5590   -0.0012 H       1  LIG1        0.0624
     14 C           4.2165    2.2210   -0.6124 C.ar    1  LIG1       -0.0534
     15 C           5.6219    2.1339   -0.5870 C.ar    1  LIG1       -0.0520
     16 C           3.4843    1.1831   -0.0005 C.ar    1  LIG1       -0.0178
     17 C           6.2716    1.0620    0.0207 C.ar    1  LIG1       -0.0004
     18 H           6.2062    2.9240   -1.0535 H       1  LIG1        0.0624
     19 C           4.1325    0.1127    0.6063 C.ar    1  LIG1       -0.0534
     20 C           5.5295    0.0444    0.6215 C.ar    1  LIG1       -0.0520
     21 H           3.5457   -0.6753    1.0713 H       1  LIG1        0.0624
     22 H           3.6675    3.2457   -1.1943 H       1  LIG1        0.0624
     23 H           6.1299   -0.9587    1.1902 H       1  LIG1        0.0624
     24 C           7.5707    1.0135    0.0258 C.ar    1  LIG1        0.0659
     25 C           8.4135   -0.0531    0.0289 C.ar    1  LIG1        0.0950
     26 C           9.7509    0.4586    0.0353 C.ar    1  LIG1        0.0980
     27 C           9.6667    1.8154    0.0342 C.ar    1  LIG1        0.1051
     28 N           8.3337    2.1594    0.0288 N.ar    1  LIG1       -0.3496
     29 H           7.9785    3.0878    0.0267 H       1  LIG1        0.1661
     30 N           7.7587   -2.4105    0.0268 N.1     1  LIG1       -0.1908
     31 C           8.0656   -1.3057    0.0278 C.1     1  LIG1        0.1026
     32 N          11.8120   -0.8596    0.0457 N.1     1  LIG1       -0.1908
     33 C          10.8461   -0.2418    0.0409 C.1     1  LIG1        0.1027
     34 C          10.6016    2.7187    0.0382 C.ar    1  LIG1        0.1954
     35 C          10.9407    3.7866   -0.7665 C.ar    1  LIG1        0.1878
     36 C          12.1188    4.3905   -0.1796 C.ar    1  LIG1        0.1059
     37 C          12.4214    3.6513    0.9453 C.ar    1  LIG1        0.1170
     38 O          11.5002    2.6149    1.1009 O.2     1  LIG1       -0.4557
     39 H          13.3393    3.6975    1.8647 H       1  LIG1        0.1050
     40 O          10.3390    4.1929   -1.8449 O.3     1  LIG1       -0.4896
     41 C          10.8725    5.4592   -2.2408 C.3     1  LIG1        0.0791
     42 H          10.3771    5.7932   -3.1285 H       1  LIG1        0.0660
     43 H          10.7192    6.1716   -1.4573 H       1  LIG1        0.0660
     44 H          11.9204    5.3604   -2.4329 H       1  LIG1        0.0660
     45 N          12.7493    5.4284   -0.6438 N.pl3   1  LIG1       -0.3527
     46 H          13.5213    5.1267   -1.2031 H       1  LIG1        0.1425
     47 H          12.1257    5.9745   -1.2032 H       1  LIG1        0.1425
@<TRIPOS>BOND
     1    42    41    1
     2    44    41    1
     3    41    40    1
     4    41    43    1
     5    40    35    1
     6    47    45    1
     7    46    45    1
     8    22    14    1
     9    18    15    1
    10    35    36   ar
    11    35    34   ar
    12    45    36    1
    13    14    15   ar
    14    14    16   ar
    15    15    17   ar
    16    12    10    1
    17    11    10    1
    18    36    37   ar
    19    13     7    1
    20     7     6   ar
    21     7     4   ar
    22    16     4    1
    23    16    19   ar
    24     6     8    1
    25     6     3   ar
    26     4     2   ar
    27     1     2   ar
    28     1     3   ar
    29     1    10    1
    30     2     5    1
    31     3     9    1
    32    17    24    1
    33    17    20   ar
    34    24    28   ar
    35    24    25   ar
    36    29    28    1
    37    30    31    3
    38    31    25    1
    39    28    27   ar
    40    25    26   ar
    41    27    26   ar
    42    27    34    1
    43    26    33    1
    44    34    38   ar
    45    33    32    3
    46    19    20   ar
    47    19    21    1
    48    20    23    1
    49    37    38   ar
    50    37    39    1
