@<TRIPOS>MOLECULE
mol_data/noopt/geoms/mol2/4ha6ld6ia12fl-.out
 52 55 0 0 0
SMALL
GASTEIGER

@<TRIPOS>ATOM
      1 C           0.0509    0.0309    0.0002 C.ar    1  LIG1        0.0251
      2 C           1.4592    0.0309    0.0002 C.ar    1  LIG1       -0.0332
      3 C          -0.6045    1.2792    0.0002 C.ar    1  LIG1       -0.0410
      4 C           2.1849    1.2200   -0.0004 C.ar    1  LIG1       -0.0110
      5 H           1.9850   -0.9213    0.0004 H       1  LIG1        0.0642
      6 C           0.1195    2.4666   -0.0004 C.ar    1  LIG1       -0.0594
      7 C           1.5181    2.4458   -0.0008 C.ar    1  LIG1       -0.0537
      8 H          -0.4090    3.4165   -0.0003 H       1  LIG1        0.0618
      9 H          -1.9035    1.3287    0.0016 H       1  LIG1        0.0636
     10 N          -0.5709   -1.1108    0.0005 N.pl3   1  LIG1       -0.3579
     11 H          -1.4474   -1.0131   -0.4708 H       1  LIG1        0.1423
     12 H          -0.0133   -1.7941   -0.4709 H       1  LIG1        0.1423
     13 H           2.1896    3.5590   -0.0012 H       1  LIG1        0.0624
     14 C           4.2297    2.3764   -0.0004 C.ar    1  LIG1        0.2230
     15 C           3.4844    1.1831   -0.0005 C.ar    1  LIG1        0.0450
     16 C           4.1715   -0.0322   -0.0004 C.ar    1  LIG1       -0.0295
     17 C           5.5673   -0.0149   -0.0004 C.ar    1  LIG1        0.0785
     18 C           6.2235    1.2297   -0.0005 C.ar    1  LIG1        0.0938
     19 N           5.5764    2.4115   -0.0004 N.ar    1  LIG1       -0.2110
     20 H           3.6233   -0.9849   -0.0015 H       1  LIG1        0.0639
     21 O           3.6351    3.5325   -0.0004 O.3     1  LIG1       -0.4792
     22 C           4.6156    4.5734   -0.0005 C.3     1  LIG1        0.0804
     23 H           4.1259    5.5248   -0.0006 H       1  LIG1        0.0660
     24 H           5.2273    4.4873    0.8733 H       1  LIG1        0.0660
     25 H           5.2274    4.4871   -0.8740 H       1  LIG1        0.0660
     26 N           6.8580   -2.0933   -0.0005 N.1     1  LIG1       -0.1908
     27 C           6.2531   -1.1193   -0.0005 C.1     1  LIG1        0.1013
     28 C           8.1685    2.5470   -0.0002 C.ar    1  LIG1        0.0482
     29 C           7.5217    1.2976   -0.0004 C.ar    1  LIG1        0.0228
     30 C           8.3045    0.1417   -0.0002 C.ar    1  LIG1       -0.0487
     31 C           9.6944    0.2713    0.0001 C.ar    1  LIG1       -0.0319
     32 C          10.2482    1.5647    0.0001 C.ar    1  LIG1        0.1101
     33 N           9.5080    2.6905    0.0001 N.ar    1  LIG1       -0.2480
     34 H           7.8348   -0.8521   -0.0013 H       1  LIG1        0.0625
     35 C           7.4826    3.6518   -0.0003 C.3     1  LIG1       -0.0217
     36 H           6.5522    3.4940    0.5041 H       1  LIG1        0.0293
     37 H           7.2944    3.9547   -1.0091 H       1  LIG1        0.0293
     38 H           8.0367    4.4156    0.5041 H       1  LIG1        0.0293
     39 H          10.4669   -0.7742    0.0001 H       1  LIG1        0.0640
     40 C          11.5367    1.7370    0.0004 C.ar    1  LIG1        0.1979
     41 C          12.6396    0.9084    0.0154 C.ar    1  LIG1        0.2069
     42 C          13.8046    1.7684    0.0050 C.ar    1  LIG1        0.2002
     43 C          13.3361    3.0660   -0.0158 C.ar    1  LIG1        0.1380
     44 O          11.9409    3.0726   -0.0191 O.2     1  LIG1       -0.4538
     45 H          13.8796    4.2468   -0.0324 H       1  LIG1        0.1069
     46 O          12.6582   -0.3913    0.0352 O.3     1  LIG1       -0.5008
     47 H          13.5676   -0.6987    0.0401 H       1  LIG1        0.2924
     48 O          15.0416    1.3685    0.0138 O.3     1  LIG1       -0.4888
     49 C          15.0811   -0.0609    0.0170 C.3     1  LIG1        0.0791
     50 H          16.0994   -0.3896    0.0241 H       1  LIG1        0.0660
     51 H          14.5812   -0.4296    0.8883 H       1  LIG1        0.0660
     52 H          14.5923   -0.4332   -0.8589 H       1  LIG1        0.0660
@<TRIPOS>BOND
     1    37    35    1
     2    25    22    1
     3    52    49    1
     4    12    10    1
     5    11    10    1
     6    45    43    1
     7    44    43   ar
     8    44    40   ar
     9    43    42   ar
    10    20    16    1
    11    34    30    1
    12    13     7    1
    13     7     4   ar
    14     7     6   ar
    15    23    22    1
    16    26    27    3
    17    15     4    1
    18    15    14   ar
    19    15    16   ar
    20    18    19   ar
    21    18    29    1
    22    18    17   ar
    23    27    17    1
    24    22    21    1
    25    22    24    1
    26     4     2   ar
    27     6     8    1
    28     6     3   ar
    29    14    21    1
    30    14    19   ar
    31    16    17   ar
    32    29    28   ar
    33    29    30   ar
    34    35    28    1
    35    35    38    1
    36    35    36    1
    37    28    33   ar
    38    30    31   ar
    39    33    32   ar
    40    32    31   ar
    41    32    40    1
    42    31    39    1
    43     2     1   ar
    44     2     5    1
    45     3     1   ar
    46     3     9    1
    47     1    10    1
    48    40    41   ar
    49    42    48    1
    50    42    41   ar
    51    48    49    1
    52    41    46    1
    53    49    50    1
    54    49    51    1
    55    46    47    1
