@<TRIPOS>MOLECULE
mol_data/noopt/geoms/mol2/4hd.out
 15 15 0 0 0
SMALL
GASTEIGER

@<TRIPOS>ATOM
      1 C           0.0509    0.0309    0.0002 C.ar    1  LIG1        0.0246
      2 C           1.4592    0.0309    0.0002 C.ar    1  LIG1       -0.0398
      3 C          -0.6045    1.2792    0.0002 C.ar    1  LIG1       -0.0398
      4 C           2.1849    1.2200   -0.0004 C.ar    1  LIG1       -0.0426
      5 H           1.9850   -0.9213    0.0004 H       1  LIG1        0.0636
      6 C           0.1195    2.4666   -0.0004 C.ar    1  LIG1       -0.0426
      7 C           1.5181    2.4458   -0.0008 C.ar    1  LIG1        0.0519
      8 H          -0.4090    3.4165   -0.0003 H       1  LIG1        0.0631
      9 H           3.4844    1.1831   -0.0005 H       1  LIG1        0.0631
     10 H          -1.9035    1.3287    0.0016 H       1  LIG1        0.0636
     11 N          -0.5709   -1.1108    0.0005 N.pl3   1  LIG1       -0.3580
     12 H          -1.4474   -1.0131   -0.4708 H       1  LIG1        0.1423
     13 H          -0.0133   -1.7941   -0.4709 H       1  LIG1        0.1423
     14 N           2.7818    4.5408   -0.0016 N.1     1  LIG1       -0.1909
     15 C           2.1896    3.5590   -0.0012 C.1     1  LIG1        0.0992
@<TRIPOS>BOND
     1    13    11    1
     2    12    11    1
     3    14    15    3
     4    15     7    1
     5     7     4   ar
     6     7     6   ar
     7     9     4    1
     8     4     2   ar
     9     6     8    1
    10     6     3   ar
    11     1     2   ar
    12     1     3   ar
    13     1    11    1
    14     2     5    1
    15     3    10    1
