@<TRIPOS>MOLECULE
mol_data/noopt/geoms/mol2/4hd13fi(330)12aa(40)4de(190).out
 47 51 0 0 0
SMALL
GASTEIGER

@<TRIPOS>ATOM
      1 C           0.0509    0.0309    0.0002 C.ar    1  LIG1        0.0252
      2 C           1.4592    0.0309    0.0002 C.ar    1  LIG1       -0.0315
      3 C          -0.6045    1.2792    0.0002 C.ar    1  LIG1       -0.0407
      4 C           2.1849    1.2200   -0.0004 C.ar    1  LIG1        0.0088
      5 H           1.9850   -0.9213    0.0004 H       1  LIG1        0.0643
      6 C           0.1195    2.4666   -0.0004 C.ar    1  LIG1       -0.0542
      7 C           1.5181    2.4458   -0.0008 C.ar    1  LIG1       -0.0105
      8 H          -0.4090    3.4165   -0.0003 H       1  LIG1        0.0622
      9 H          -1.9035    1.3287    0.0016 H       1  LIG1        0.0636
     10 N          -0.5709   -1.1108    0.0005 N.pl3   1  LIG1       -0.3579
     11 H          -1.4474   -1.0131   -0.4708 H       1  LIG1        0.1423
     12 H          -0.0133   -1.7941   -0.4709 H       1  LIG1        0.1423
     13 N           2.7818    4.5408   -0.0016 N.3     1  LIG1       -0.1262
     14 C           2.1896    3.5590   -0.0012 C.3     1  LIG1        0.1350
     15 C           3.4844    1.1831   -0.0005 C.ar    1  LIG1        0.0896
     16 C           4.3400    0.2450   -0.4862 C.ar    1  LIG1        0.1456
     17 C           5.6710    0.7024   -0.2218 C.ar    1  LIG1        0.0199
     18 C           5.5702    1.9007    0.4122 C.ar    1  LIG1        0.0891
     19 N           4.2332    2.1986    0.5501 N.ar    1  LIG1       -0.3486
     20 H           3.8668    3.0172    0.9787 H       1  LIG1        0.1661
     21 O           4.0074   -0.8629   -1.0794 O.3     1  LIG1       -0.5044
     22 H           4.7922   -1.3962   -1.2256 H       1  LIG1        0.2922
     23 C           6.7748    0.0881   -0.5302 C.3     1  LIG1       -0.0341
     24 H           7.6069    0.6248   -0.1248 H       1  LIG1        0.0279
     25 H           6.8685    0.0360   -1.5949 H       1  LIG1        0.0279
     26 H           6.7571   -0.9020   -0.1248 H       1  LIG1        0.0279
     27 C           6.4940    2.7025    0.8524 C.ar    1  LIG1        0.1521
     28 C           7.5572    2.5931    1.7245 C.ar    1  LIG1       -0.0138
     29 C           8.1958    3.8921    1.7651 C.ar    1  LIG1       -0.0152
     30 C           7.4802    4.7095    0.9146 C.ar    1  LIG1        0.1361
     31 O           6.4260    3.9988    0.3398 O.2     1  LIG1       -0.4534
     32 H           7.9341    1.5431    2.3919 H       1  LIG1        0.0656
     33 H           9.2405    4.2010    2.4745 H       1  LIG1        0.0656
     34 C           6.3984    6.6379    0.1303 C.ar    1  LIG1       -0.0091
     35 C           6.5383    7.9808   -0.2701 C.ar    1  LIG1       -0.0547
     36 C           7.5603    5.9511    0.5378 C.ar    1  LIG1        0.0236
     37 C           7.7791    8.6141   -0.2652 C.ar    1  LIG1       -0.0460
     38 H           5.6546    8.5294   -0.5885 H       1  LIG1        0.0621
     39 C           8.7993    6.5827    0.5428 C.ar    1  LIG1       -0.0353
     40 C           8.9177    7.9176    0.1419 C.ar    1  LIG1        0.0254
     41 H           9.6805    6.0317    0.8612 H       1  LIG1        0.0637
     42 H           7.8719    9.8551   -0.6412 H       1  LIG1        0.0630
     43 N           4.1703    5.6285    0.0819 N.3     1  LIG1       -0.1262
     44 C           5.2145    6.1016    0.1046 C.3     1  LIG1        0.1351
     45 C          10.0785    8.5028    0.1485 C.1     1  LIG1       -0.0696
     46 C          11.1511    9.0435    0.1546 C.1     1  LIG1       -0.1139
     47 H          12.1065    9.5252    0.1601 H       1  LIG1        0.1232
@<TRIPOS>BOND
     1    25    23    1
     2    22    21    1
     3    21    16    1
     4    42    37    1
     5    38    35    1
     6    23    17    1
     7    23    26    1
     8    23    24    1
     9    16    17   ar
    10    16    15   ar
    11    12    10    1
    12    11    10    1
    13    35    37   ar
    14    35    34   ar
    15    37    40   ar
    16    17    18   ar
    17    13    14    1
    18    13    43    1
    19    14     7    1
    20     7     6   ar
    21     7     4   ar
    22    15     4    1
    23    15    19   ar
    24     6     8    1
    25     6     3   ar
    26     4     2   ar
    27     1     2   ar
    28     1     3   ar
    29     1    10    1
    30     2     5    1
    31     3     9    1
    32    43    44    1
    33    44    34    1
    34    34    36   ar
    35    40    45    1
    36    40    39   ar
    37    45    46    3
    38    46    47    1
    39    31    27   ar
    40    31    30   ar
    41    18    19   ar
    42    18    27    1
    43    36    39   ar
    44    36    30    1
    45    39    41    1
    46    19    20    1
    47    27    28   ar
    48    30    29   ar
    49    28    29   ar
    50    28    32    1
    51    29    33    1
