@<TRIPOS>MOLECULE
mol_data/noopt/geoms/mol2/4hd4hd4hd.out
 41 43 0 0 0
SMALL
GASTEIGER

@<TRIPOS>ATOM
      1 C           0.0509    0.0309    0.0002 C.ar    1  LIG1        0.0252
      2 C           1.4592    0.0309    0.0002 C.ar    1  LIG1       -0.0320
      3 C          -0.6045    1.2792    0.0002 C.ar    1  LIG1       -0.0398
      4 C           2.1849    1.2200   -0.0004 C.ar    1  LIG1        0.0030
      5 H           1.9850   -0.9213    0.0004 H       1  LIG1        0.0642
      6 C           0.1195    2.4666   -0.0004 C.ar    1  LIG1       -0.0420
      7 C           1.5181    2.4458   -0.0008 C.ar    1  LIG1        0.0596
      8 H          -0.4090    3.4165   -0.0003 H       1  LIG1        0.0631
      9 H          -1.9035    1.3287    0.0016 H       1  LIG1        0.0636
     10 N          -0.5709   -1.1108    0.0005 N.pl3   1  LIG1       -0.3579
     11 H          -1.4474   -1.0131   -0.4708 H       1  LIG1        0.1423
     12 H          -0.0133   -1.7941   -0.4709 H       1  LIG1        0.1423
     13 N           2.7818    4.5408   -0.0016 N.1     1  LIG1       -0.1909
     14 C           2.1896    3.5590   -0.0012 C.1     1  LIG1        0.0998
     15 C           4.1518   -0.0588    0.0002 C.ar    1  LIG1        0.0330
     16 C           5.5600   -0.0451    0.0016 C.ar    1  LIG1       -0.0314
     17 C           3.4843    1.1831   -0.0005 C.ar    1  LIG1        0.0053
     18 C           6.2742    1.1510    0.0017 C.ar    1  LIG1        0.0030
     19 H           6.0950   -0.9922    0.0024 H       1  LIG1        0.0643
     20 C           4.1968    2.3775   -0.0004 C.ar    1  LIG1       -0.0342
     21 C           5.5955    2.3702    0.0006 C.ar    1  LIG1        0.0602
     22 H           3.6591    3.3222   -0.0009 H       1  LIG1        0.0637
     23 N           3.5411   -1.2065   -0.0001 N.pl3   1  LIG1       -0.3575
     24 H           2.6638   -1.1171   -0.4716 H       1  LIG1        0.1423
     25 H           4.1054   -1.8841   -0.4716 H       1  LIG1        0.1423
     26 N           6.8388    4.4774    0.0010 N.1     1  LIG1       -0.1908
     27 C           6.2561    3.4899    0.0008 C.1     1  LIG1        0.0998
     28 C           8.2534   -0.1087    0.0043 C.ar    1  LIG1        0.0325
     29 C           9.6614   -0.0814    0.0071 C.ar    1  LIG1       -0.0392
     30 C           7.5739    1.1267    0.0029 C.ar    1  LIG1        0.0053
     31 C          10.3639    1.1216    0.0079 C.ar    1  LIG1       -0.0426
     32 H          10.2056   -1.0232    0.0084 H       1  LIG1        0.0636
     33 C           8.2747    2.3279    0.0036 C.ar    1  LIG1       -0.0348
     34 C           9.6734    2.3342    0.0060 C.ar    1  LIG1        0.0525
     35 H           7.7279    3.2674    0.0026 H       1  LIG1        0.0637
     36 H          11.6639    1.1099    0.0104 H       1  LIG1        0.0631
     37 N           7.6539   -1.2622    0.0034 N.pl3   1  LIG1       -0.3575
     38 H           6.7758   -1.1812   -0.4682 H       1  LIG1        0.1423
     39 H           8.2248   -1.9342   -0.4682 H       1  LIG1        0.1423
     40 N          10.8963    4.4533    0.0077 N.1     1  LIG1       -0.1909
     41 C          10.3232    3.4602    0.0069 C.1     1  LIG1        0.0992
@<TRIPOS>BOND
     1    25    23    1
     2    24    23    1
     3    12    10    1
     4    11    10    1
     5    39    37    1
     6    38    37    1
     7    13    14    3
     8    14     7    1
     9    22    20    1
    10     7     4   ar
    11     7     6   ar
    12    17    20   ar
    13    17     4    1
    14    17    15   ar
    15    20    21   ar
    16     4     2   ar
    17     6     8    1
    18     6     3   ar
    19    23    15    1
    20     3     1   ar
    21     3     9    1
    22     1     2   ar
    23     1    10    1
    24     2     5    1
    25    15    16   ar
    26    21    27    1
    27    21    18   ar
    28    27    26    3
    29    16    18   ar
    30    16    19    1
    31    18    30    1
    32    35    33    1
    33    30    33   ar
    34    30    28   ar
    35    37    28    1
    36    33    34   ar
    37    28    29   ar
    38    34    41    1
    39    34    31   ar
    40    41    40    3
    41    29    31   ar
    42    29    32    1
    43    31    36    1
