@<TRIPOS>MOLECULE
mol_data/noopt/geoms/mol2/4hd4hd4hd-4hd-.out
 54 56 0 0 0
SMALL
GASTEIGER

@<TRIPOS>ATOM
      1 C           0.0509    0.0309    0.0002 C.ar    1  LIG1        0.0252
      2 C           1.4592    0.0309    0.0002 C.ar    1  LIG1       -0.0320
      3 C          -0.6045    1.2792    0.0002 C.ar    1  LIG1       -0.0398
      4 C           2.1849    1.2200   -0.0004 C.ar    1  LIG1        0.0030
      5 H           1.9850   -0.9213    0.0004 H       1  LIG1        0.0642
      6 C           0.1195    2.4666   -0.0004 C.ar    1  LIG1       -0.0420
      7 C           1.5181    2.4458   -0.0008 C.ar    1  LIG1        0.0596
      8 H          -0.4090    3.4165   -0.0003 H       1  LIG1        0.0631
      9 H          -1.9035    1.3287    0.0016 H       1  LIG1        0.0636
     10 N          -0.5709   -1.1108    0.0005 N.pl3   1  LIG1       -0.3579
     11 H          -1.4474   -1.0131   -0.4708 H       1  LIG1        0.1423
     12 H          -0.0133   -1.7941   -0.4709 H       1  LIG1        0.1423
     13 N           2.7818    4.5408   -0.0016 N.1     1  LIG1       -0.1909
     14 C           2.1896    3.5590   -0.0012 C.1     1  LIG1        0.0998
     15 C           4.1518   -0.0588    0.0002 C.ar    1  LIG1        0.0330
     16 C           5.5600   -0.0451    0.0016 C.ar    1  LIG1       -0.0324
     17 C           3.4843    1.1831   -0.0005 C.ar    1  LIG1        0.0043
     18 C           6.2742    1.1510    0.0017 C.ar    1  LIG1       -0.0108
     19 H           6.0950   -0.9922    0.0024 H       1  LIG1        0.0642
     20 C           4.1968    2.3775   -0.0004 C.ar    1  LIG1       -0.0482
     21 C           5.5955    2.3702    0.0006 C.ar    1  LIG1       -0.0346
     22 H           3.6591    3.3222   -0.0009 H       1  LIG1        0.0627
     23 N           3.5411   -1.2065   -0.0001 N.pl3   1  LIG1       -0.3575
     24 H           2.6638   -1.1171   -0.4716 H       1  LIG1        0.1423
     25 H           4.1054   -1.8841   -0.4716 H       1  LIG1        0.1423
     26 N           6.8388    4.4774    0.0010 N.3     2  LIG2        0.0000
     27 C           6.2561    3.4899    0.0008 C.3     1  LIG1       -0.0005
     28 C           8.2991    2.3358    0.0043 C.ar    1  LIG1        0.0527
     29 C           9.7051    2.2559    0.0071 C.ar    1  LIG1       -0.0298
     30 C           7.5739    1.1267    0.0029 C.ar    1  LIG1        0.0060
     31 C          10.3621    1.0275    0.0079 C.ar    1  LIG1        0.0031
     32 H          10.2841    3.1767    0.0084 H       1  LIG1        0.0643
     33 C           8.2293   -0.0999    0.0037 C.ar    1  LIG1       -0.0342
     34 C           9.6269   -0.1585    0.0061 C.ar    1  LIG1        0.0602
     35 H           7.6478   -1.0183    0.0026 H       1  LIG1        0.0637
     36 N           7.7431    3.5109    0.0034 N.pl3   1  LIG1       -0.2659
     37 H           8.3388    4.1611   -0.4682 H       1  LIG1        0.1699
     38 H           6.8626    3.4628   -0.4682 H       1  LIG1        0.0361
     39 N          10.7697   -2.3218    0.0077 N.1     1  LIG1       -0.1908
     40 C          10.2341   -1.3080    0.0069 C.1     1  LIG1        0.0998
     41 C          12.3984    2.1926    0.0125 C.ar    1  LIG1        0.0325
     42 C          13.8036    2.0991    0.0167 C.ar    1  LIG1       -0.0392
     43 C          11.6616    0.9906    0.0104 C.ar    1  LIG1        0.0053
     44 C          14.4487    0.8644    0.0181 C.ar    1  LIG1       -0.0426
     45 H          14.3915    3.0142    0.0186 H       1  LIG1        0.0636
     46 C          12.3051   -0.2423    0.0118 C.ar    1  LIG1       -0.0348
     47 C          13.7020   -0.3144    0.0156 C.ar    1  LIG1        0.0525
     48 H          11.7147   -1.1550    0.0102 H       1  LIG1        0.0637
     49 H          15.7478    0.8149    0.0219 H       1  LIG1        0.0631
     50 N          11.8539    3.3731    0.0110 N.pl3   1  LIG1       -0.3575
     51 H          12.4559    4.0173   -0.4608 H       1  LIG1        0.1423
     52 H          10.9731    3.3333   -0.4608 H       1  LIG1        0.1423
     53 N          14.8237   -2.4887    0.0184 N.1     1  LIG1       -0.1909
     54 C          14.2980   -1.4697    0.0171 C.1     1  LIG1        0.0992
@<TRIPOS>BOND
     1    25    23    1
     2    24    23    1
     3    12    10    1
     4    11    10    1
     5    38    27    1
     6    37    36    1
     7    52    50    1
     8    51    50    1
     9    13    14    3
    10    14     7    1
    11    22    20    1
    12     7     6   ar
    13     7     4   ar
    14    17    20   ar
    15    17     4    1
    16    17    15   ar
    17    20    21   ar
    18     6     8    1
    19     6     3   ar
    20     4     2   ar
    21    23    15    1
    22     1     3   ar
    23     1     2   ar
    24     1    10    1
    25     3     9    1
    26     2     5    1
    27    15    16   ar
    28    21    27    1
    29    21    18   ar
    30    16    18   ar
    31    16    19    1
    32    18    30    1
    33    35    33    1
    34    30    33   ar
    35    30    28   ar
    36    36    28    1
    37    33    34   ar
    38    28    29   ar
    39    34    40    1
    40    34    31   ar
    41    40    39    3
    42    29    31   ar
    43    29    32    1
    44    31    43    1
    45    48    46    1
    46    43    46   ar
    47    43    41   ar
    48    50    41    1
    49    46    47   ar
    50    41    42   ar
    51    47    54    1
    52    47    44   ar
    53    42    44   ar
    54    42    45    1
    55    54    53    3
    56    44    49    1
