@<TRIPOS>MOLECULE
mol_data/noopt/geoms/mol2/4hd4hd.out
 28 29 0 0 0
SMALL
GASTEIGER

@<TRIPOS>ATOM
      1 C           0.0509    0.0309    0.0002 C.ar    1  LIG1        0.0252
      2 C           1.4592    0.0309    0.0002 C.ar    1  LIG1       -0.0320
      3 C          -0.6045    1.2792    0.0002 C.ar    1  LIG1       -0.0398
      4 C           2.1849    1.2200   -0.0004 C.ar    1  LIG1        0.0030
      5 H           1.9850   -0.9213    0.0004 H       1  LIG1        0.0642
      6 C           0.1195    2.4666   -0.0004 C.ar    1  LIG1       -0.0420
      7 C           1.5181    2.4458   -0.0008 C.ar    1  LIG1        0.0596
      8 H          -0.4090    3.4165   -0.0003 H       1  LIG1        0.0631
      9 H          -1.9035    1.3287    0.0016 H       1  LIG1        0.0636
     10 N          -0.5709   -1.1108    0.0005 N.pl3   1  LIG1       -0.3579
     11 H          -1.4474   -1.0131   -0.4708 H       1  LIG1        0.1423
     12 H          -0.0133   -1.7941   -0.4709 H       1  LIG1        0.1423
     13 N           2.7818    4.5408   -0.0016 N.1     1  LIG1       -0.1909
     14 C           2.1896    3.5590   -0.0012 C.1     1  LIG1        0.0998
     15 C           4.1518   -0.0588    0.0002 C.ar    1  LIG1        0.0325
     16 C           5.5600   -0.0451    0.0016 C.ar    1  LIG1       -0.0392
     17 C           3.4843    1.1831   -0.0005 C.ar    1  LIG1        0.0053
     18 C           6.2742    1.1510    0.0017 C.ar    1  LIG1       -0.0426
     19 H           6.0950   -0.9922    0.0024 H       1  LIG1        0.0636
     20 C           4.1968    2.3775   -0.0004 C.ar    1  LIG1       -0.0348
     21 C           5.5955    2.3702    0.0006 C.ar    1  LIG1        0.0525
     22 H           3.6591    3.3222   -0.0009 H       1  LIG1        0.0637
     23 H           7.5740    1.1267    0.0029 H       1  LIG1        0.0631
     24 N           3.5411   -1.2065   -0.0001 N.pl3   1  LIG1       -0.3575
     25 H           2.6638   -1.1171   -0.4716 H       1  LIG1        0.1423
     26 H           4.1054   -1.8841   -0.4716 H       1  LIG1        0.1423
     27 N           6.8388    4.4774    0.0010 N.1     1  LIG1       -0.1909
     28 C           6.2561    3.4899    0.0008 C.1     1  LIG1        0.0992
@<TRIPOS>BOND
     1    26    24    1
     2    25    24    1
     3    12    10    1
     4    11    10    1
     5    13    14    3
     6    14     7    1
     7    22    20    1
     8     7     4   ar
     9     7     6   ar
    10    17    20   ar
    11    17     4    1
    12    17    15   ar
    13    20    21   ar
    14     4     2   ar
    15     6     8    1
    16     6     3   ar
    17    24    15    1
    18     1     3   ar
    19     1     2   ar
    20     1    10    1
    21     3     9    1
    22     2     5    1
    23    15    16   ar
    24    21    28    1
    25    21    18   ar
    26    28    27    3
    27    16    18   ar
    28    16    19    1
    29    18    23    1
