@<TRIPOS>MOLECULE
mol_data/noopt/geoms/mol2/4hd4hd-4hd.out
 41 41 0 0 0
SMALL
GASTEIGER

@<TRIPOS>ATOM
      1 C           0.0509    0.0309    0.0002 C.ar    1  LIG1        0.0251
      2 C           1.4592    0.0309    0.0002 C.ar    1  LIG1       -0.0330
      3 C          -0.6045    1.2792    0.0002 C.ar    1  LIG1       -0.0407
      4 C           2.1849    1.2200   -0.0004 C.ar    1  LIG1       -0.0109
      5 H           1.9850   -0.9213    0.0004 H       1  LIG1        0.0642
      6 C           0.1195    2.4666   -0.0004 C.ar    1  LIG1       -0.0560
      7 C           1.5181    2.4458   -0.0008 C.ar    1  LIG1       -0.0352
      8 H          -0.4090    3.4165   -0.0003 H       1  LIG1        0.0621
      9 H          -1.9035    1.3287    0.0016 H       1  LIG1        0.0636
     10 N          -0.5709   -1.1108    0.0005 N.pl3   1  LIG1       -0.3579
     11 H          -1.4474   -1.0131   -0.4708 H       1  LIG1        0.1423
     12 H          -0.0133   -1.7941   -0.4709 H       1  LIG1        0.1423
     13 N           2.7818    4.5408   -0.0016 N.3     2  LIG2        0.0000
     14 C           2.1896    3.5590   -0.0012 C.3     1  LIG1       -0.0005
     15 C           4.2212    2.3851    0.0002 C.ar    1  LIG1        0.0526
     16 C           5.6264    2.2916    0.0016 C.ar    1  LIG1       -0.0307
     17 C           3.4843    1.1831   -0.0005 C.ar    1  LIG1        0.0050
     18 C           6.2715    1.0569    0.0017 C.ar    1  LIG1       -0.0107
     19 H           6.2143    3.2067    0.0024 H       1  LIG1        0.0643
     20 C           4.1278   -0.0498   -0.0004 C.ar    1  LIG1       -0.0481
     21 C           5.5247   -0.1219    0.0006 C.ar    1  LIG1       -0.0346
     22 H           3.5374   -0.9625   -0.0009 H       1  LIG1        0.0627
     23 N           3.6767    3.5656   -0.0001 N.pl3   1  LIG1       -0.2659
     24 H           4.2785    4.2102   -0.4716 H       1  LIG1        0.1699
     25 H           2.7957    3.5262   -0.4716 H       1  LIG1        0.0361
     26 N           6.6465   -2.2962    0.0010 N.3     3  LIG3        0.0000
     27 C           6.1208   -1.2772    0.0008 C.3     1  LIG1       -0.0005
     28 C           8.2259   -0.2409    0.0043 C.ar    1  LIG1        0.0521
     29 C           9.6342   -0.2409    0.0071 C.ar    1  LIG1       -0.0376
     30 C           7.5705    1.0074    0.0029 C.ar    1  LIG1        0.0060
     31 C          10.3599    0.9482    0.0079 C.ar    1  LIG1       -0.0425
     32 H          10.1600   -1.1931    0.0084 H       1  LIG1        0.0637
     33 C           8.2945    2.1948    0.0036 C.ar    1  LIG1       -0.0348
     34 C           9.6931    2.1740    0.0060 C.ar    1  LIG1        0.0525
     35 H           7.7660    3.1447    0.0026 H       1  LIG1        0.0637
     36 H          11.6594    0.9113    0.0104 H       1  LIG1        0.0631
     37 N           7.6041   -1.3826    0.0034 N.pl3   1  LIG1       -0.2660
     38 H           6.7278   -1.2846   -0.4682 H       1  LIG1        0.0361
     39 H           8.1619   -2.0656   -0.4682 H       1  LIG1        0.1699
     40 N          10.9568    4.2689    0.0077 N.1     1  LIG1       -0.1909
     41 C          10.3646    3.2871    0.0069 C.1     1  LIG1        0.0992
@<TRIPOS>BOND
     1    25    14    1
     2    24    23    1
     3    12    10    1
     4    11    10    1
     5    39    37    1
     6    38    27    1
     7    14     7    1
     8    22    20    1
     9     7     4   ar
    10     7     6   ar
    11    17    20   ar
    12    17     4    1
    13    17    15   ar
    14    20    21   ar
    15     4     2   ar
    16     6     8    1
    17     6     3   ar
    18    23    15    1
    19    15    16   ar
    20     3     1   ar
    21     3     9    1
    22     1     2   ar
    23     1    10    1
    24     2     5    1
    25    21    27    1
    26    21    18   ar
    27    16    18   ar
    28    16    19    1
    29    18    30    1
    30    35    33    1
    31    30    33   ar
    32    30    28   ar
    33    37    28    1
    34    33    34   ar
    35    28    29   ar
    36    34    41    1
    37    34    31   ar
    38    41    40    3
    39    29    31   ar
    40    29    32    1
    41    31    36    1
