@<TRIPOS>MOLECULE
mol_data/noopt/geoms/mol2/4hd4hd-.out
 28 28 0 0 0
SMALL
GASTEIGER

@<TRIPOS>ATOM
      1 C           0.0509    0.0309    0.0002 C.ar    1  LIG1        0.0251
      2 C           1.4592    0.0309    0.0002 C.ar    1  LIG1       -0.0330
      3 C          -0.6045    1.2792    0.0002 C.ar    1  LIG1       -0.0407
      4 C           2.1849    1.2200   -0.0004 C.ar    1  LIG1       -0.0108
      5 H           1.9850   -0.9213    0.0004 H       1  LIG1        0.0642
      6 C           0.1195    2.4666   -0.0004 C.ar    1  LIG1       -0.0560
      7 C           1.5181    2.4458   -0.0008 C.ar    1  LIG1       -0.0352
      8 H          -0.4090    3.4165   -0.0003 H       1  LIG1        0.0621
      9 H          -1.9035    1.3287    0.0016 H       1  LIG1        0.0636
     10 N          -0.5709   -1.1108    0.0005 N.pl3   1  LIG1       -0.3579
     11 H          -1.4474   -1.0131   -0.4708 H       1  LIG1        0.1423
     12 H          -0.0133   -1.7941   -0.4709 H       1  LIG1        0.1423
     13 N           2.7818    4.5408   -0.0016 N.3     2  LIG2        0.0000
     14 C           2.1896    3.5590   -0.0012 C.3     1  LIG1       -0.0005
     15 C           4.2212    2.3851    0.0002 C.ar    1  LIG1        0.0521
     16 C           5.6264    2.2916    0.0016 C.ar    1  LIG1       -0.0376
     17 C           3.4843    1.1831   -0.0005 C.ar    1  LIG1        0.0060
     18 C           6.2715    1.0569    0.0017 C.ar    1  LIG1       -0.0425
     19 H           6.2143    3.2067    0.0024 H       1  LIG1        0.0637
     20 C           4.1278   -0.0498   -0.0004 C.ar    1  LIG1       -0.0348
     21 C           5.5247   -0.1219    0.0006 C.ar    1  LIG1        0.0525
     22 H           3.5374   -0.9625   -0.0009 H       1  LIG1        0.0637
     23 H           7.5706    1.0074    0.0029 H       1  LIG1        0.0631
     24 N           3.6767    3.5656   -0.0001 N.pl3   1  LIG1       -0.2660
     25 H           4.2785    4.2102   -0.4716 H       1  LIG1        0.1699
     26 H           2.7957    3.5262   -0.4716 H       1  LIG1        0.0361
     27 N           6.6465   -2.2962    0.0010 N.1     1  LIG1       -0.1909
     28 C           6.1208   -1.2772    0.0008 C.1     1  LIG1        0.0992
@<TRIPOS>BOND
     1    26    14    1
     2    25    24    1
     3    12    10    1
     4    11    10    1
     5    14     7    1
     6    22    20    1
     7     7     4   ar
     8     7     6   ar
     9    17    20   ar
    10    17     4    1
    11    17    15   ar
    12    20    21   ar
    13     4     2   ar
    14     6     8    1
    15     6     3   ar
    16    24    15    1
    17    15    16   ar
    18     1     3   ar
    19     1     2   ar
    20     1    10    1
    21     3     9    1
    22     2     5    1
    23    21    28    1
    24    21    18   ar
    25    28    27    3
    26    16    18   ar
    27    16    19    1
    28    18    23    1
