@<TRIPOS>MOLECULE
mol_data/noopt/geoms/mol2/4hd4hd-4hd-4hd.out
 54 55 0 0 0
SMALL
GASTEIGER

@<TRIPOS>ATOM
      1 C           0.0509    0.0309    0.0002 C.ar    1  LIG1        0.0251
      2 C           1.4592    0.0309    0.0002 C.ar    1  LIG1       -0.0330
      3 C          -0.6045    1.2792    0.0002 C.ar    1  LIG1       -0.0407
      4 C           2.1849    1.2200   -0.0004 C.ar    1  LIG1       -0.0108
      5 H           1.9850   -0.9213    0.0004 H       1  LIG1        0.0642
      6 C           0.1195    2.4666   -0.0004 C.ar    1  LIG1       -0.0560
      7 C           1.5181    2.4458   -0.0008 C.ar    1  LIG1       -0.0352
      8 H          -0.4090    3.4165   -0.0003 H       1  LIG1        0.0621
      9 H          -1.9035    1.3287    0.0016 H       1  LIG1        0.0636
     10 N          -0.5709   -1.1108    0.0005 N.pl3   1  LIG1       -0.3579
     11 H          -1.4474   -1.0131   -0.4708 H       1  LIG1        0.1423
     12 H          -0.0133   -1.7941   -0.4709 H       1  LIG1        0.1423
     13 N           2.7818    4.5408   -0.0016 N.3     2  LIG2        0.0000
     14 C           2.1896    3.5590   -0.0012 C.3     1  LIG1       -0.0005
     15 C           4.2212    2.3851    0.0002 C.ar    1  LIG1        0.0527
     16 C           5.6264    2.2916    0.0016 C.ar    1  LIG1       -0.0298
     17 C           3.4843    1.1831   -0.0005 C.ar    1  LIG1        0.0060
     18 C           6.2715    1.0569    0.0017 C.ar    1  LIG1        0.0031
     19 H           6.2143    3.2067    0.0024 H       1  LIG1        0.0643
     20 C           4.1278   -0.0498   -0.0004 C.ar    1  LIG1       -0.0342
     21 C           5.5247   -0.1219    0.0006 C.ar    1  LIG1        0.0602
     22 H           3.5374   -0.9625   -0.0009 H       1  LIG1        0.0637
     23 N           3.6767    3.5656   -0.0001 N.pl3   1  LIG1       -0.2659
     24 H           4.2785    4.2102   -0.4716 H       1  LIG1        0.1699
     25 H           2.7957    3.5262   -0.4716 H       1  LIG1        0.0361
     26 N           6.6465   -2.2962    0.0010 N.1     1  LIG1       -0.1908
     27 C           6.1208   -1.2772    0.0008 C.1     1  LIG1        0.0998
     28 C           8.3190    2.2022    0.0043 C.ar    1  LIG1        0.0330
     29 C           9.7232    2.0950    0.0071 C.ar    1  LIG1       -0.0324
     30 C           7.5705    1.0074    0.0029 C.ar    1  LIG1        0.0043
     31 C          10.3563    0.8541    0.0079 C.ar    1  LIG1       -0.0108
     32 H          10.3199    3.0044    0.0084 H       1  LIG1        0.0642
     33 C           8.2020   -0.2317    0.0037 C.ar    1  LIG1       -0.0482
     34 C           9.5982   -0.3174    0.0061 C.ar    1  LIG1       -0.0346
     35 H           7.6028   -1.1386    0.0026 H       1  LIG1        0.0627
     36 N           7.7859    3.3879    0.0034 N.pl3   1  LIG1       -0.3575
     37 H           8.3941    4.0264   -0.4682 H       1  LIG1        0.1423
     38 H           6.9047    3.3568   -0.4682 H       1  LIG1        0.1423
     39 N          10.6988   -2.5024    0.0077 N.3     3  LIG3        0.0000
     40 C          10.1830   -1.4784    0.0069 C.3     1  LIG1       -0.0005
     41 C          12.2980   -0.4626    0.0125 C.ar    1  LIG1        0.0521
     42 C          13.7062   -0.4762    0.0167 C.ar    1  LIG1       -0.0376
     43 C          11.6548    0.7920    0.0104 C.ar    1  LIG1        0.0060
     44 C          14.4434    0.7058    0.0181 C.ar    1  LIG1       -0.0425
     45 H          14.2228   -1.4335    0.0186 H       1  LIG1        0.0637
     46 C          12.3902    1.9724    0.0118 C.ar    1  LIG1       -0.0348
     47 C          13.7886    1.9380    0.0156 C.ar    1  LIG1        0.0525
     48 H          11.8710    2.9273    0.0102 H       1  LIG1        0.0637
     49 H          15.7425    0.6563    0.0219 H       1  LIG1        0.0631
     50 N          11.6652   -1.5982    0.0110 N.pl3   1  LIG1       -0.2660
     51 H          10.7900   -1.4914   -0.4607 H       1  LIG1        0.0361
     52 H          12.2164   -2.2863   -0.4608 H       1  LIG1        0.1699
     53 N          15.0725    4.0206    0.0184 N.1     1  LIG1       -0.1909
     54 C          14.4708    3.0446    0.0171 C.1     1  LIG1        0.0992
@<TRIPOS>BOND
     1    25    14    1
     2    24    23    1
     3    12    10    1
     4    11    10    1
     5    38    36    1
     6    37    36    1
     7    52    50    1
     8    51    40    1
     9    14     7    1
    10    22    20    1
    11     7     6   ar
    12     7     4   ar
    13    17    20   ar
    14    17     4    1
    15    17    15   ar
    16    20    21   ar
    17     6     8    1
    18     6     3   ar
    19     4     2   ar
    20    23    15    1
    21    15    16   ar
    22     1     3   ar
    23     1     2   ar
    24     1    10    1
    25     3     9    1
    26     2     5    1
    27    21    27    1
    28    21    18   ar
    29    27    26    3
    30    16    18   ar
    31    16    19    1
    32    18    30    1
    33    35    33    1
    34    30    33   ar
    35    30    28   ar
    36    36    28    1
    37    33    34   ar
    38    28    29   ar
    39    34    40    1
    40    34    31   ar
    41    29    31   ar
    42    29    32    1
    43    31    43    1
    44    48    46    1
    45    43    46   ar
    46    43    41   ar
    47    50    41    1
    48    46    47   ar
    49    41    42   ar
    50    47    54    1
    51    47    44   ar
    52    42    44   ar
    53    42    45    1
    54    54    53    3
    55    44    49    1
