@<TRIPOS>MOLECULE
mol_data/noopt/geoms/mol2/4hd4ed(40)4hi(130)13ia(110).out
 54 57 0 0 0
SMALL
GASTEIGER

@<TRIPOS>ATOM
      1 C           0.0509    0.0309    0.0002 C.ar    1  LIG1        0.0252
      2 C           1.4592    0.0309    0.0002 C.ar    1  LIG1       -0.0321
      3 C          -0.6045    1.2792    0.0002 C.ar    1  LIG1       -0.0398
      4 C           2.1849    1.2200   -0.0004 C.ar    1  LIG1        0.0024
      5 H           1.9850   -0.9213    0.0004 H       1  LIG1        0.0642
      6 C           0.1195    2.4666   -0.0004 C.ar    1  LIG1       -0.0420
      7 C           1.5181    2.4458   -0.0008 C.ar    1  LIG1        0.0596
      8 H          -0.4090    3.4165   -0.0003 H       1  LIG1        0.0631
      9 H          -1.9035    1.3287    0.0016 H       1  LIG1        0.0636
     10 N          -0.5709   -1.1108    0.0005 N.pl3   1  LIG1       -0.3579
     11 H          -1.4474   -1.0131   -0.4708 H       1  LIG1        0.1423
     12 H          -0.0133   -1.7941   -0.4709 H       1  LIG1        0.1423
     13 N           2.7818    4.5408   -0.0016 N.1     1  LIG1       -0.1909
     14 C           2.1896    3.5590   -0.0012 C.1     1  LIG1        0.0998
     15 C           4.1600    0.2276    0.7858 C.ar    1  LIG1        0.0331
     16 C           5.5679    0.2297    0.7523 C.ar    1  LIG1       -0.0367
     17 C           3.4843    1.1831   -0.0005 C.ar    1  LIG1        0.0000
     18 C           6.2739    1.1415   -0.0291 C.ar    1  LIG1        0.0024
     19 H           6.1091   -0.4991    1.3516 H       1  LIG1        0.0636
     20 C           4.1886    2.0936   -0.7808 C.ar    1  LIG1       -0.0348
     21 C           5.5872    2.0795   -0.8010 C.ar    1  LIG1        0.0602
     22 H           3.6447    2.8208   -1.3784 H       1  LIG1        0.0637
     23 C           3.5571   -0.6480    1.5341 C.1     1  LIG1       -0.0690
     24 C           3.0001   -1.4570    2.2255 C.1     1  LIG1       -0.1139
     25 H           2.5039   -2.1777    2.8414 H       1  LIG1        0.1232
     26 N           6.8162    3.6862   -2.1772 N.1     1  LIG1       -0.1908
     27 C           6.2402    2.9332   -1.5322 C.1     1  LIG1        0.0998
     28 C           8.2970    1.8869    0.8957 C.ar    1  LIG1        0.0330
     29 C           9.7031    1.8250    0.8458 C.ar    1  LIG1       -0.0311
     30 C           7.5735    1.1151   -0.0363 C.ar    1  LIG1        0.0043
     31 C          10.3618    1.0300   -0.0894 C.ar    1  LIG1        0.0032
     32 H          10.2807    2.4128    1.5558 H       1  LIG1        0.0643
     33 C           8.2306    0.3213   -0.9702 C.ar    1  LIG1       -0.0487
     34 C           9.6282    0.2728   -1.0035 C.ar    1  LIG1       -0.0407
     35 H           7.6504   -0.2647   -1.6784 H       1  LIG1        0.0627
     36 N           7.7395    2.6467    1.7912 N.pl3   1  LIG1       -0.3575
     37 H           8.0627    3.5864    1.6790 H       1  LIG1        0.1423
     38 H           6.7461    2.6203    1.6790 H       1  LIG1        0.1423
     39 C          10.2371   -0.4711   -1.8791 C.3     1  LIG1       -0.0391
     40 H          11.2953   -0.3847   -1.7463 H       1  LIG1        0.0278
     41 H           9.9739   -0.1495   -2.8651 H       1  LIG1        0.0278
     42 H           9.9431   -1.4913   -1.7463 H       1  LIG1        0.0278
     43 C          11.6612    0.9965   -0.1071 C.ar    1  LIG1        0.0497
     44 C          12.5657    1.3534    0.8429 C.ar    1  LIG1       -0.0252
     45 C          13.8702    1.1145    0.3027 C.ar    1  LIG1       -0.0409
     46 C          13.7055    0.6206   -0.9531 C.ar    1  LIG1        0.0024
     47 N          12.3546    0.5471   -1.2082 N.ar    1  LIG1       -0.3604
     48 H          11.9450    0.2208   -2.0530 H       1  LIG1        0.1653
     49 H          14.5850    0.2536   -1.8373 H       1  LIG1        0.0807
     50 C          12.2928    1.8258    2.0232 C.3     1  LIG1       -0.0377
     51 H          11.6905    1.1219    2.5587 H       1  LIG1        0.0278
     52 H          11.7598    2.7483    1.9237 H       1  LIG1        0.0278
     53 H          13.2035    1.9960    2.5586 H       1  LIG1        0.0278
     54 H          15.0048    1.3288    0.8999 H       1  LIG1        0.0635
@<TRIPOS>BOND
     1    41    39    1
     2    26    27    3
     3    48    47    1
     4    39    42    1
     5    39    40    1
     6    39    34    1
     7    49    46    1
     8    35    33    1
     9    27    21    1
    10    22    20    1
    11    47    46   ar
    12    47    43   ar
    13    34    33   ar
    14    34    31   ar
    15    33    30   ar
    16    46    45   ar
    17    21    20   ar
    18    21    18   ar
    19    20    17   ar
    20    12    10    1
    21    11    10    1
    22    43    31    1
    23    43    44   ar
    24    31    29   ar
    25    30    18    1
    26    30    28   ar
    27    18    16   ar
    28    13    14    3
    29    14     7    1
    30     7     6   ar
    31     7     4   ar
    32    17     4    1
    33    17    15   ar
    34     6     8    1
    35     6     3   ar
    36     4     2   ar
    37     3     1   ar
    38     3     9    1
    39     1     2   ar
    40     1    10    1
    41     2     5    1
    42    45    44   ar
    43    45    54    1
    44    16    15   ar
    45    16    19    1
    46    15    23    1
    47    44    50    1
    48    29    28   ar
    49    29    32    1
    50    28    36    1
    51    23    24    3
    52    38    36    1
    53    37    36    1
    54    52    50    1
    55    50    53    1
    56    50    51    1
    57    24    25    1
