@<TRIPOS>MOLECULE
mol_data/noopt/geoms/mol2/4he13li-13ii-12li-.out
 59 58 0 0 0
SMALL
GASTEIGER

@<TRIPOS>ATOM
      1 C           0.0509    0.0309    0.0002 C.2     1  LIG1        0.0419
      2 C           1.4592    0.0309    0.0002 C.3     2  LIG2        0.0000
      3 C          -0.6045    1.2792    0.0002 C.2     1  LIG1       -0.0526
      4 C           2.1849    1.2200   -0.0004 C.2     1  LIG1        0.0241
      5 H           1.9850   -0.9213    0.0004 H       2  LIG2        0.0194
      6 C           0.1195    2.4666   -0.0004 C.3     1  LIG1        0.0236
      7 C           1.5181    2.4458   -0.0008 C.2     1  LIG1        0.0199
      8 H          -0.4090    3.4165   -0.0003 H       1  LIG1        0.0408
      9 H          -1.9035    1.3287    0.0016 H       1  LIG1        0.0597
     10 N          -0.5709   -1.1108    0.0005 N.pl3   1  LIG1       -0.3568
     11 H          -1.4474   -1.0131   -0.4708 H       1  LIG1        0.1424
     12 H          -0.0133   -1.7941   -0.4709 H       1  LIG1        0.1424
     13 C           2.1896    3.5590   -0.0012 C.1     1  LIG1       -0.0727
     14 C           2.8100    4.5875   -0.0016 C.1     1  LIG1       -0.1142
     15 H           3.3627    5.5037   -0.0019 H       1  LIG1        0.1231
     16 C           3.4844    1.1831   -0.0005 C.ar    1  LIG1        0.0961
     17 C           4.3366    0.1241    0.0157 C.ar    1  LIG1        0.2076
     18 C           5.6695    0.6477    0.0079 C.ar    1  LIG1        0.0236
     19 C           5.5731    2.0035   -0.0145 C.ar    1  LIG1        0.0703
     20 N           4.2371    2.3356   -0.0192 N.ar    1  LIG1       -0.3497
     21 H           3.8736    3.2606   -0.0344 H       1  LIG1        0.1661
     22 O           3.9999   -1.1314    0.0361 O.3     1  LIG1       -0.2854
     23 C           2.5743   -1.2431    0.0435 C.3     3  LIG3       -0.0776
     24 H           2.2975   -2.2765    0.0602 H       2  LIG2        0.0194
     25 H           2.1827   -0.7550    0.9116 H       2  LIG2        0.0194
     26 H           2.1757   -0.7812   -0.8355 H       2  LIG2        0.0194
     27 C           6.7711   -0.0430    0.0195 C.3     1  LIG1       -0.0340
     28 H           7.5335    0.5100    0.5271 H       1  LIG1        0.0279
     29 H           7.0810   -0.2373   -0.9861 H       1  LIG1        0.0279
     30 H           6.6053   -0.9703    0.5270 H       1  LIG1        0.0279
     31 C           6.5000    2.9149   -0.0291 C.ar    1  LIG1        0.0673
     32 C           7.8541    2.7957   -0.0393 C.ar    1  LIG1       -0.0153
     33 C           8.3999    4.1195   -0.0528 C.ar    1  LIG1        0.0165
     34 C           7.3554    4.9895   -0.0519 C.ar    1  LIG1        0.0944
     35 N           6.1903    4.2563   -0.0370 N.ar    1  LIG1       -0.3498
     36 H           5.2714    4.6352   -0.0331 H       1  LIG1        0.1661
     37 C           8.5264    1.6826   -0.0359 C.3     1  LIG1       -0.0371
     38 H           9.4579    1.8302    0.4695 H       1  LIG1        0.0278
     39 H           8.7122    1.3751   -1.0437 H       1  LIG1        0.0278
     40 H           7.9622    0.9268    0.4695 H       1  LIG1        0.0278
     41 C           9.6613    4.4352   -0.0642 C.3     4  LIG4       -0.0681
     42 H           9.7995    5.3704    0.4371 H       3  LIG3        0.0227
     43 H           9.9987    4.5197   -1.0762 H       3  LIG3        0.0227
     44 H          10.2237    3.6753    0.4370 H       3  LIG3        0.0227
     45 C           7.3402    6.2894   -0.0615 C.ar    1  LIG1        0.1931
     46 C           8.2960    7.2840   -0.0539 C.ar    1  LIG1        0.1699
     47 C           7.5832    8.5444   -0.0739 C.ar    1  LIG1        0.0297
     48 C           6.2385    8.2361   -0.0925 C.ar    1  LIG1        0.0992
     49 O           6.0632    6.8519   -0.0853 O.2     1  LIG1       -0.4574
     50 H           5.1321    8.9182   -0.1144 H       1  LIG1        0.1033
     51 O           9.5885    7.1455   -0.0329 O.3     1  LIG1       -0.4910
     52 C           9.9193    5.7543   -0.0253 C.3     1  LIG1        0.0790
     53 H          10.9831    5.6406   -0.0082 H       1  LIG1        0.0660
     54 H           9.4972    5.2920    0.8426 H       1  LIG1        0.0660
     55 H           9.5250    5.2891   -0.9045 H       1  LIG1        0.0660
     56 C           8.1299    9.7242   -0.0740 C.3     1  LIG1       -0.0332
     57 H           7.4871   10.4152    0.4305 H       1  LIG1        0.0280
     58 H           8.2797   10.0479   -1.0828 H       1  LIG1        0.0280
     59 H           9.0725    9.6806    0.4304 H       1  LIG1        0.0280
@<TRIPOS>BOND
     1    58    56    1
     2    43    41    1
     3    39    37    1
     4    29    27    1
     5    55    52    1
     6    26    23    1
     7    12    10    1
     8    11    10    1
     9    50    48    1
    10    48    49   ar
    11    48    47   ar
    12    49    45   ar
    13    56    47    1
    14    56    59    1
    15    56    57    1
    16    47    46   ar
    17    41    44    1
    18    41    42    1
    19    45    46   ar
    20    45    34    1
    21    46    51    1
    22    33    34   ar
    23    33    32   ar
    24    34    35   ar
    25    32    37    1
    26    32    31   ar
    27    35    36    1
    28    35    31   ar
    29    37    40    1
    30    37    38    1
    31    21    20    1
    32    51    52    1
    33    31    19    1
    34    52    53    1
    35    52    54    1
    36    20    19   ar
    37    20    16   ar
    38    19    18   ar
    39    15    14    1
    40    14    13    3
    41    13     7    1
    42     7     6    1
    43     7     4    2
    44    16     4    1
    45    16    17   ar
    46     6     8    1
    47     6     3    1
    48     3     1    2
    49     3     9    1
    50     1    10    1
    51     5    23    1
    52    18    17   ar
    53    18    27    1
    54    17    22    1
    55    27    30    1
    56    27    28    1
    57    23    24    1
    58    23    25    1
