@<TRIPOS>MOLECULE
mol_data/noopt/geoms/mol2/4he12ff6he4fi-.out
 52 55 0 0 0
SMALL
GASTEIGER

@<TRIPOS>ATOM
      1 C           0.0509    0.0309    0.0002 C.ar    1  LIG1        0.0253
      2 C           1.4592    0.0309    0.0002 C.ar    1  LIG1       -0.0291
      3 C          -0.6045    1.2792    0.0002 C.ar    1  LIG1       -0.0399
      4 C           2.1849    1.2200   -0.0004 C.ar    1  LIG1        0.0381
      5 H           1.9850   -0.9213    0.0004 H       1  LIG1        0.0643
      6 C           0.1195    2.4666   -0.0004 C.ar    1  LIG1       -0.0439
      7 C           1.5181    2.4458   -0.0008 C.ar    1  LIG1        0.0356
      8 H          -0.4090    3.4165   -0.0003 H       1  LIG1        0.0630
      9 H          -1.9035    1.3287    0.0016 H       1  LIG1        0.0636
     10 N          -0.5709   -1.1108    0.0005 N.pl3   1  LIG1       -0.3579
     11 H          -1.4474   -1.0131   -0.4708 H       1  LIG1        0.1423
     12 H          -0.0133   -1.7941   -0.4709 H       1  LIG1        0.1423
     13 C           2.1896    3.5590   -0.0012 C.1     1  LIG1       -0.0689
     14 C           2.8100    4.5875   -0.0016 C.1     1  LIG1       -0.1139
     15 H           3.3627    5.5037   -0.0019 H       1  LIG1        0.1232
     16 C           3.4844    1.1831   -0.0005 C.ar    1  LIG1        0.1819
     17 C           4.4399    0.1881   -0.0006 C.ar    1  LIG1        0.2059
     18 C           5.7279    0.8499   -0.0007 C.ar    1  LIG1        0.2059
     19 C           5.4738    2.2061   -0.0008 C.ar    1  LIG1        0.1840
     20 O           4.0977    2.4367   -0.0007 O.2     1  LIG1       -0.4471
     21 O           4.2495   -1.0979   -0.0005 O.3     1  LIG1       -0.5008
     22 H           5.0978   -1.5474   -0.0004 H       1  LIG1        0.2924
     23 O           6.8846    0.2566   -0.0008 O.3     1  LIG1       -0.5008
     24 H           7.5827    0.9155   -0.0008 H       1  LIG1        0.2924
     25 C           5.5900    4.5523   -0.0007 C.ar    1  LIG1        0.1278
     26 C           6.1999    3.2844   -0.0008 C.ar    1  LIG1        0.0617
     27 C           7.5942    3.2153   -0.0007 C.ar    1  LIG1       -0.0302
     28 C           8.3260    4.4040   -0.0006 C.ar    1  LIG1        0.0515
     29 C           7.6251    5.6240   -0.0007 C.ar    1  LIG1        0.0919
     30 N           6.2805    5.7091   -0.0006 N.ar    1  LIG1       -0.2304
     31 H           8.1062    2.2426   -0.0018 H       1  LIG1        0.0639
     32 N           4.2952    4.6681   -0.0007 N.pl3   1  LIG1       -0.3426
     33 H           4.0359    5.5110   -0.4721 H       1  LIG1        0.1437
     34 H           3.8905    3.8846   -0.4721 H       1  LIG1        0.1437
     35 C           9.6259    4.3930   -0.0007 C.1     1  LIG1       -0.0675
     36 C          10.8271    4.3828   -0.0007 C.1     1  LIG1       -0.1138
     37 H          11.8970    4.3738   -0.0008 H       1  LIG1        0.1232
     38 C           9.6715    6.7710    0.0216 C.ar    1  LIG1        0.1261
     39 C          10.3141    8.0242    0.0224 C.ar    1  LIG1       -0.0193
     40 C           8.2619    6.7573   -0.0005 C.ar    1  LIG1        0.0433
     41 C           9.5873    9.2124    0.0014 C.ar    1  LIG1       -0.0554
     42 H          11.4012    8.0576    0.0395 H       1  LIG1        0.0654
     43 C           7.5358    7.9433   -0.0215 C.ar    1  LIG1       -0.0461
     44 C           8.1925    9.1783   -0.0208 C.ar    1  LIG1       -0.0496
     45 H           6.4496    7.9064   -0.0383 H       1  LIG1        0.0628
     46 H          10.2131   10.3519    0.0026 H       1  LIG1        0.0621
     47 O          10.4036    5.6969    0.0416 O.3     1  LIG1       -0.5061
     48 H          11.3318    5.9418    0.0465 H       1  LIG1        0.2922
     49 C           7.5084   10.2839   -0.0403 C.3     1  LIG1       -0.0397
     50 H           6.5738   10.1339    0.4587 H       1  LIG1        0.0278
     51 H           7.3286   10.5743   -1.0544 H       1  LIG1        0.0278
     52 H           8.0597   11.0533    0.4586 H       1  LIG1        0.0278
@<TRIPOS>BOND
     1    51    49    1
     2    34    32    1
     3    33    32    1
     4    12    10    1
     5    11    10    1
     6    49    44    1
     7    49    52    1
     8    49    50    1
     9    45    43    1
    10    43    44   ar
    11    43    40   ar
    12    44    41   ar
    13    15    14    1
    14    31    27    1
    15    14    13    3
    16    13     7    1
    17    26    19    1
    18    26    25   ar
    19    26    27   ar
    20     7     6   ar
    21     7     4   ar
    22    24    23    1
    23    37    36    1
    24    23    18    1
    25    19    20   ar
    26    19    18   ar
    27    20    16   ar
    28    36    35    3
    29    32    25    1
    30    29    30   ar
    31    29    28   ar
    32    29    40    1
    33    18    17   ar
    34    25    30   ar
    35    35    28    1
    36    27    28   ar
    37    17    16   ar
    38    17    21    1
    39    40    38   ar
    40    16     4    1
    41    21    22    1
    42     6     8    1
    43     6     3   ar
    44     4     2   ar
    45     1     3   ar
    46     1     2   ar
    47     1    10    1
    48     3     9    1
    49     2     5    1
    50    41    46    1
    51    41    39   ar
    52    38    39   ar
    53    38    47    1
    54    39    42    1
    55    47    48    1
