@<TRIPOS>MOLECULE
mol_data/noopt/geoms/mol2/4he12al12de-4ah-.out
 49 52 0 0 0
SMALL
GASTEIGER

@<TRIPOS>ATOM
      1 C           0.0509    0.0309    0.0002 C.ar    1  LIG1        0.0253
      2 C           1.4592    0.0309    0.0002 C.ar    1  LIG1       -0.0292
      3 C          -0.6045    1.2792    0.0002 C.ar    1  LIG1       -0.0399
      4 C           2.1849    1.2200   -0.0004 C.ar    1  LIG1        0.0345
      5 H           1.9850   -0.9213    0.0004 H       1  LIG1        0.0643
      6 C           0.1195    2.4666   -0.0004 C.ar    1  LIG1       -0.0439
      7 C           1.5181    2.4458   -0.0008 C.ar    1  LIG1        0.0354
      8 H          -0.4090    3.4165   -0.0003 H       1  LIG1        0.0630
      9 H          -1.9035    1.3287    0.0016 H       1  LIG1        0.0636
     10 N          -0.5709   -1.1108    0.0005 N.pl3   1  LIG1       -0.3579
     11 H          -1.4474   -1.0131   -0.4708 H       1  LIG1        0.1423
     12 H          -0.0133   -1.7941   -0.4709 H       1  LIG1        0.1423
     13 C           2.1896    3.5590   -0.0012 C.1     1  LIG1       -0.0690
     14 C           2.8100    4.5875   -0.0016 C.1     1  LIG1       -0.1139
     15 H           3.3627    5.5037   -0.0019 H       1  LIG1        0.1232
     16 C           3.4844    1.1831   -0.0005 C.ar    1  LIG1        0.1407
     17 C           4.4399    0.1881   -0.0006 C.ar    1  LIG1        0.0268
     18 C           5.7279    0.8499   -0.0007 C.ar    1  LIG1        0.1693
     19 C           5.4738    2.2061   -0.0008 C.ar    1  LIG1        0.2132
     20 O           4.0977    2.4367   -0.0007 O.2     1  LIG1       -0.4478
     21 H           4.2495   -1.0979   -0.0005 H       1  LIG1        0.0692
     22 O           6.8846    0.2566   -0.0008 O.3     1  LIG1       -0.4912
     23 C           6.6940   -1.1607   -0.0009 C.3     1  LIG1        0.0790
     24 H           7.6463   -1.6487   -0.0011 H       1  LIG1        0.0660
     25 H           6.1467   -1.4471    0.8729 H       1  LIG1        0.0660
     26 H           6.1464   -1.4469   -0.8744 H       1  LIG1        0.0660
     27 C           6.1999    3.2844   -0.0008 C.ar    1  LIG1        0.1928
     28 C           7.5516    3.5598   -0.0008 C.ar    1  LIG1        0.1166
     29 C           7.6810    5.0021   -0.0009 C.ar    1  LIG1        0.0885
     30 C           6.3992    5.5126   -0.0010 C.ar    1  LIG1        0.1525
     31 O           5.4685    4.4730   -0.0010 O.2     1  LIG1       -0.4490
     32 N           9.4052    1.9629   -0.0006 N.1     1  LIG1       -0.1907
     33 C           8.5365    2.7113   -0.0007 C.1     1  LIG1        0.1043
     34 C           8.8009    5.6623   -0.0009 C.1     1  LIG1       -0.0645
     35 C           9.8357    6.2723   -0.0010 C.1     1  LIG1       -0.1138
     36 H          10.7575    6.8156   -0.0010 H       1  LIG1        0.1232
     37 C           6.7125    7.8375    0.0211 C.ar    1  LIG1       -0.0509
     38 C           6.0972    9.1043    0.0216 C.ar    1  LIG1       -0.0594
     39 C           5.8762    6.7027   -0.0010 C.ar    1  LIG1        0.0203
     40 C           4.7107    9.2376    0.0005 C.ar    1  LIG1       -0.0410
     41 H           6.7238    9.9932    0.0387 H       1  LIG1        0.0618
     42 C           4.4920    6.8352   -0.0221 C.ar    1  LIG1       -0.0303
     43 C           3.8996    8.1023   -0.0216 C.ar    1  LIG1        0.0252
     44 H           3.8686    5.9449   -0.0388 H       1  LIG1        0.0643
     45 H           4.1761   10.4226    0.0016 H       1  LIG1        0.0636
     46 H           8.0110    7.7770    0.0411 H       1  LIG1        0.0625
     47 N           2.6051    8.2200   -0.0412 N.pl3   1  LIG1       -0.3579
     48 H           2.3542    9.0627   -0.5176 H       1  LIG1        0.1423
     49 H           2.2063    7.4365   -0.5176 H       1  LIG1        0.1423
@<TRIPOS>BOND
     1    26    23    1
     2    49    47    1
     3    48    47    1
     4    12    10    1
     5    11    10    1
     6    47    43    1
     7    44    42    1
     8    42    43   ar
     9    42    39   ar
    10    43    40   ar
    11    15    14    1
    12    14    13    3
    13    13     7    1
    14    24    23    1
    15    36    35    1
    16    31    30   ar
    17    31    27   ar
    18    39    30    1
    19    39    37   ar
    20    35    34    3
    21    30    29   ar
    22    34    29    1
    23    29    28   ar
    24    23    22    1
    25    23    25    1
    26    28    27   ar
    27    28    33    1
    28    27    19    1
    29     7     6   ar
    30     7     4   ar
    31    22    18    1
    32    19    20   ar
    33    19    18   ar
    34    20    16   ar
    35    33    32    3
    36    18    17   ar
    37    17    16   ar
    38    17    21    1
    39    16     4    1
    40     6     8    1
    41     6     3   ar
    42     4     2   ar
    43     1     3   ar
    44     1     2   ar
    45     1    10    1
    46     3     9    1
    47     2     5    1
    48    40    45    1
    49    40    38   ar
    50    37    38   ar
    51    37    46    1
    52    38    41    1
