@<TRIPOS>MOLECULE
mol_data/noopt/geoms/mol2/4he4hf6ih12fe-13hl6fl-4di12lf.out
 107 112 0 0 0
SMALL
GASTEIGER

@<TRIPOS>ATOM
      1 C           0.0509    0.0309    0.0002 C.ar    1  LIG1        0.0252
      2 C           1.4592    0.0309    0.0002 C.ar    1  LIG1       -0.0321
      3 C          -0.6045    1.2792    0.0002 C.ar    1  LIG1       -0.0399
      4 C           2.1849    1.2200   -0.0004 C.ar    1  LIG1        0.0010
      5 H           1.9850   -0.9213    0.0004 H       1  LIG1        0.0642
      6 C           0.1195    2.4666   -0.0004 C.ar    1  LIG1       -0.0440
      7 C           1.5181    2.4458   -0.0008 C.ar    1  LIG1        0.0325
      8 H          -0.4090    3.4165   -0.0003 H       1  LIG1        0.0630
      9 H          -1.9035    1.3287    0.0016 H       1  LIG1        0.0636
     10 N          -0.5709   -1.1108    0.0005 N.pl3   1  LIG1       -0.3579
     11 H          -1.4474   -1.0131   -0.4708 H       1  LIG1        0.1423
     12 H          -0.0133   -1.7941   -0.4709 H       1  LIG1        0.1423
     13 C           2.1896    3.5590   -0.0012 C.1     1  LIG1       -0.0691
     14 C           2.8100    4.5875   -0.0016 C.1     1  LIG1       -0.1139
     15 H           3.3627    5.5037   -0.0019 H       1  LIG1        0.1232
     16 C           4.1518   -0.0588    0.0002 C.ar    1  LIG1        0.0330
     17 C           5.5600   -0.0451    0.0016 C.ar    1  LIG1       -0.0321
     18 C           3.4843    1.1831   -0.0005 C.ar    1  LIG1        0.0046
     19 C           6.2742    1.1510    0.0017 C.ar    1  LIG1       -0.0066
     20 H           6.0950   -0.9922    0.0024 H       1  LIG1        0.0642
     21 C           4.1968    2.3775   -0.0004 C.ar    1  LIG1       -0.0439
     22 C           5.5955    2.3702    0.0006 C.ar    1  LIG1       -0.0088
     23 H           3.6591    3.3222   -0.0009 H       1  LIG1        0.0630
     24 N           3.5411   -1.2065   -0.0001 N.pl3   1  LIG1       -0.3575
     25 H           2.6638   -1.1171   -0.4716 H       1  LIG1        0.1423
     26 H           4.1054   -1.8841   -0.4716 H       1  LIG1        0.1423
     27 O           6.2562    3.4899    0.0008 O.3     2  HOH2       -0.4105
     28 H           5.6396    4.2257    0.0009 H       0  HOH0        0.2052
     29 C           8.3076    2.3271    0.0037 C.ar    1  LIG1        0.0503
     30 C           7.5739    1.1267    0.0029 C.ar    1  LIG1        0.0058
     31 C           8.2728   -0.0819    0.0037 C.ar    1  LIG1       -0.0294
     32 C           9.6684   -0.0510    0.0051 C.ar    1  LIG1        0.0547
     33 C          10.3125    1.1999    0.0056 C.ar    1  LIG1        0.1305
     34 N           9.6539    2.3753    0.0051 N.ar    1  LIG1       -0.2459
     35 H           7.7339   -1.0399    0.0021 H       1  LIG1        0.0643
     36 C           7.7018    3.4777    0.0031 C.3     1  LIG1       -0.0044
     37 H           6.7625    3.3864    0.5073 H       0  HOH0        0.2052
     38 H           7.5357    3.7928   -1.0059 H       1  LIG1        0.0332
     39 H           8.3086    4.2005    0.5073 H       1  LIG1        0.0332
     40 N          10.3649   -1.1487    0.0058 N.pl3   1  LIG1       -0.3562
     41 H           9.8541   -1.8678   -0.4655 H       1  LIG1        0.1424
     42 H          11.2330   -0.9930   -0.4655 H       1  LIG1        0.1424
     43 C          11.6100    1.2803    0.0070 C.ar    1  LIG1        0.1981
     44 C          12.6513    0.3757    0.0229 C.ar    1  LIG1        0.1807
     45 C          13.8744    1.1510    0.0136 C.ar    1  LIG1        0.1140
     46 C          13.4991    2.4785   -0.0075 C.ar    1  LIG1        0.1728
     47 O          12.1078    2.5840   -0.0120 O.2     1  LIG1       -0.4466
     48 O          12.5777   -0.9221    0.0426 O.3     1  LIG1       -0.5023
     49 H          13.4631   -1.2932    0.0474 H       1  LIG1        0.2923
     50 C          15.0799    0.6644    0.0234 C.1     1  LIG1       -0.0621
     51 C          16.1938    0.2149    0.0325 C.1     1  LIG1       -0.1137
     52 H          17.1860   -0.1856    0.0406 H       1  LIG1        0.1232
     53 C          14.1249    3.6178   -0.0235 C.ar    1  LIG1        0.1085
     54 C          15.4561    3.8930   -0.0181 C.ar    1  LIG1        0.0962
     55 C          15.5984    5.3177   -0.0421 C.ar    1  LIG1        0.1667
     56 C          14.3479    5.8505   -0.0628 C.ar    1  LIG1        0.0964
     57 N          13.4428    4.8133   -0.0510 N.ar    1  LIG1       -0.3472
     58 H          12.4537    4.9119   -0.0615 H       1  LIG1        0.1662
     59 N          16.4197    3.0207    0.0060 N.pl3   1  LIG1       -0.3534
     60 H          16.1252    2.1858   -0.4592 H       1  LIG1        0.1425
     61 H          17.2212    3.3964   -0.4592 H       1  LIG1        0.1425
     62 O          16.7156    5.9826   -0.0442 O.3     1  LIG1       -0.4911
     63 C          17.8151    5.0684   -0.0451 C.3     1  LIG1        0.0790
     64 H          18.7344    5.6160   -0.0470 H       1  LIG1        0.0660
     65 H          17.7683    4.4533    0.8293 H       1  LIG1        0.0660
     66 H          17.7656    4.4517   -0.9180 H       1  LIG1        0.0660
     67 C          12.5892    7.4067   -0.1235 C.ar    1  LIG1        0.2225
     68 C          13.9598    7.0909   -0.0884 C.ar    1  LIG1        0.0668
     69 C          14.8849    8.1365   -0.0817 C.ar    1  LIG1       -0.0035
     70 C          14.4142    9.4504   -0.1100 C.ar    1  LIG1        0.1468
     71 C          13.0241    9.6651   -0.1443 C.ar    1  LIG1        0.1176
     72 N          12.1177    8.6683   -0.1511 N.ar    1  LIG1       -0.2087
     73 H          15.9639    7.9287   -0.0556 H       1  LIG1        0.0663
     74 O          11.6899    6.4679   -0.1310 O.3     1  LIG1       -0.4919
     75 H          12.1218    5.6105   -0.1328 H       1  LIG1        0.2937
     76 O          15.2349   10.4586   -0.1053 O.3     1  LIG1       -0.4929
     77 C          16.5816    9.9777   -0.1036 C.3     1  LIG1        0.0789
     78 H          17.2568   10.8078   -0.0999 H       1  LIG1        0.0660
     79 H          16.7460    9.3803    0.7688 H       1  LIG1        0.0660
     80 H          16.7499    9.3851   -0.9784 H       1  LIG1        0.0660
     81 C          13.4078   11.9792   -0.1854 C.ar    1  LIG1        0.0695
     82 C          12.8311   13.2637   -0.2133 C.ar    1  LIG1        0.0131
     83 C          12.5374   10.8702   -0.1715 C.ar    1  LIG1        0.0223
     84 C          11.4492   13.4386   -0.2274 C.ar    1  LIG1        0.0331
     85 H          13.4845   14.1333   -0.2242 H       1  LIG1        0.0194
     86 C          11.1576   11.0442   -0.1855 C.ar    1  LIG1       -0.0476
     87 C          10.6039   12.3284   -0.2136 C.ar    1  LIG1       -0.0384
     88 H          10.5075   10.1731   -0.1742 H       1  LIG1        0.0627
     89 N          15.8471   11.7919   -0.1633 N.1     1  LIG1       -0.1908
     90 C          14.7039   11.8797   -0.1737 C.1     1  LIG1        0.1004
     91 C           9.3131   12.4850   -0.2265 C.3     1  LIG1       -0.0390
     92 H           8.8489   11.6613    0.2744 H       1  LIG1        0.0278
     93 H           8.9690   12.5267   -1.2388 H       1  LIG1        0.0278
     94 H           9.0594   13.3959    0.2743 H       1  LIG1        0.0278
     95 C          10.9507   14.6390   -0.2532 C.ar    1  LIG1        0.1859
     96 C          11.4672   15.9180   -0.2728 C.ar    1  LIG1        0.2655
     97 C          10.3360   16.8217   -0.2981 C.ar    1  LIG1        0.2029
     98 C           9.2028   16.0346   -0.2923 C.ar    1  LIG1        0.1379
     99 O           9.5559   14.6850   -0.2649 O.2     1  LIG1       -0.4552
    100 H           7.9217   16.2552   -0.3062 H       1  LIG1        0.1069
    101 O          12.7183   16.2711   -0.2697 O.3     1  LIG1       -0.2799
    102 C          13.5437   15.1033   -0.2686 C.3     3  LIG3       -0.0776
    103 H          14.5734   15.3943   -0.2661 H       1  LIG1        0.0194
    104 H          13.3358   14.5204    0.6043 H       1  LIG1        0.0194
    105 H          13.3397   14.5214   -1.1430 H       1  LIG1        0.0194
    106 O          10.4036   18.1198   -0.3214 O.3     1  LIG1       -0.5011
    107 H           9.5166   18.4869   -0.3271 H       1  LIG1        0.2924
@<TRIPOS>BOND
     1    93    91    1
     2   105   102    1
     3    38    36    1
     4    80    77    1
     5    66    63    1
     6    26    24    1
     7    25    24    1
     8    12    10    1
     9    11    10    1
    10    42    40    1
    11    41    40    1
    12    61    59    1
    13    60    59    1
    14   107   106    1
    15   106    97    1
    16   100    98    1
    17    97    98   ar
    18    97    96   ar
    19    98    99   ar
    20    96   101    1
    21    96    95   ar
    22   102   103    1
    23   102    85    1
    24   102   104    1
    25    99    95   ar
    26    95    84    1
    27    84    87   ar
    28    84    82   ar
    29    91    87    1
    30    91    94    1
    31    91    92    1
    32    87    86   ar
    33    82    81   ar
    34    86    88    1
    35    86    83   ar
    36    81    90    1
    37    81    83   ar
    38    90    89    3
    39    83    71    1
    40    72    71   ar
    41    72    67   ar
    42    71    70   ar
    43    75    74    1
    44    74    67    1
    45    67    68   ar
    46    70    76    1
    47    70    69   ar
    48    76    77    1
    49    77    78    1
    50    77    79    1
    51    68    69   ar
    52    68    56    1
    53    69    73    1
    54    56    57   ar
    55    56    55   ar
    56    58    57    1
    57    57    53   ar
    58    64    63    1
    59    63    62    1
    60    63    65    1
    61    62    55    1
    62    55    54   ar
    63    53    54   ar
    64    53    46    1
    65    54    59    1
    66    47    46   ar
    67    47    43   ar
    68    46    45   ar
    69    15    14    1
    70    14    13    3
    71    13     7    1
    72    23    21    1
    73     7     4   ar
    74     7     6   ar
    75    18    21   ar
    76    18     4    1
    77    18    16   ar
    78    21    22   ar
    79     4     2   ar
    80     6     8    1
    81     6     3   ar
    82    24    16    1
    83     1     2   ar
    84     1     3   ar
    85     1    10    1
    86     2     5    1
    87     3     9    1
    88    16    17   ar
    89    22    19   ar
    90    27    28    1
    91    27    37    1
    92    17    19   ar
    93    17    20    1
    94    19    30    1
    95    35    31    1
    96    30    29   ar
    97    30    31   ar
    98    36    29    1
    99    36    39    1
   100    29    34   ar
   101    31    32   ar
   102    34    33   ar
   103    32    33   ar
   104    32    40    1
   105    33    43    1
   106    43    44   ar
   107    45    44   ar
   108    45    50    1
   109    44    48    1
   110    50    51    3
   111    51    52    1
   112    48    49    1
