@<TRIPOS>MOLECULE
mol_data/noopt/geoms/mol2/4he4ih-4ad-6hl-.out
 57 60 0 0 0
SMALL
GASTEIGER

@<TRIPOS>ATOM
      1 C           0.0509    0.0309    0.0002 C.ar    1  LIG1        0.0252
      2 C           1.4592    0.0309    0.0002 C.ar    1  LIG1       -0.0322
      3 C          -0.6045    1.2792    0.0002 C.ar    1  LIG1       -0.0399
      4 C           2.1849    1.2200   -0.0004 C.ar    1  LIG1       -0.0005
      5 H           1.9850   -0.9213    0.0004 H       1  LIG1        0.0642
      6 C           0.1195    2.4666   -0.0004 C.ar    1  LIG1       -0.0440
      7 C           1.5181    2.4458   -0.0008 C.ar    1  LIG1        0.0325
      8 H          -0.4090    3.4165   -0.0003 H       1  LIG1        0.0630
      9 H          -1.9035    1.3287    0.0016 H       1  LIG1        0.0636
     10 N          -0.5709   -1.1108    0.0005 N.pl3   1  LIG1       -0.3579
     11 H          -1.4474   -1.0131   -0.4708 H       1  LIG1        0.1423
     12 H          -0.0133   -1.7941   -0.4709 H       1  LIG1        0.1423
     13 C           2.1896    3.5590   -0.0012 C.1     1  LIG1       -0.0691
     14 C           2.8100    4.5875   -0.0016 C.1     1  LIG1       -0.1139
     15 H           3.3627    5.5037   -0.0019 H       1  LIG1        0.1232
     16 C           4.1518   -0.0586    0.0215 C.ar    1  LIG1       -0.0420
     17 C           5.5600   -0.0449    0.0220 C.ar    1  LIG1       -0.0488
     18 C           3.4843    1.1831   -0.0005 C.ar    1  LIG1       -0.0120
     19 C           6.2742    1.1510    0.0009 C.ar    1  LIG1        0.0031
     20 H           6.0951   -0.9918    0.0390 H       1  LIG1        0.0627
     21 C           4.1968    2.3773   -0.0216 C.ar    1  LIG1       -0.0324
     22 C           5.5955    2.3701   -0.0212 C.ar    1  LIG1        0.0329
     23 H           3.6591    3.3219   -0.0383 H       1  LIG1        0.0642
     24 C           3.5410   -1.2063    0.0416 C.3     1  LIG1       -0.0391
     25 H           4.1484   -1.9247    0.5515 H       1  LIG1        0.0278
     26 H           3.3662   -1.5350   -0.9616 H       1  LIG1        0.0278
     27 H           2.6059   -1.1038    0.5514 H       1  LIG1        0.0278
     28 N           6.2561    3.4895   -0.0408 N.pl3   1  LIG1       -0.3575
     29 H           7.1251    3.3554   -0.5172 H       1  LIG1        0.1423
     30 H           5.7188    4.1854   -0.5172 H       1  LIG1        0.1423
     31 C           8.2534   -0.1084    0.0245 C.ar    1  LIG1       -0.0534
     32 C           9.6614   -0.0811    0.0261 C.ar    1  LIG1       -0.0527
     33 C           7.5739    1.1267    0.0018 C.ar    1  LIG1       -0.0155
     34 C          10.3639    1.1217    0.0055 C.ar    1  LIG1       -0.0058
     35 H          10.2056   -1.0227    0.0436 H       1  LIG1        0.0624
     36 C           8.2747    2.3278   -0.0187 C.ar    1  LIG1       -0.0447
     37 C           9.6734    2.3341   -0.0171 C.ar    1  LIG1        0.0032
     38 H           7.7279    3.2671   -0.0358 H       1  LIG1        0.0630
     39 H           7.6539   -1.2618    0.0440 H       1  LIG1        0.0624
     40 N          10.8963    4.4529   -0.0531 N.2     1  LIG1       -0.1571
     41 C          10.3232    3.4600   -0.0362 C.2     1  LIG1        0.0576
     42 C          12.3859    2.3174   -0.0123 C.ar    1  LIG1        0.1428
     43 C          11.6638    1.1101    0.0076 C.ar    1  LIG1        0.0273
     44 C          12.3745   -0.0914    0.0297 C.ar    1  LIG1       -0.0074
     45 C          13.7697   -0.0470    0.0311 C.ar    1  LIG1        0.1388
     46 C          14.4015    1.2099    0.0100 C.ar    1  LIG1        0.0714
     47 N          13.7316    2.3787   -0.0113 N.ar    1  LIG1       -0.2348
     48 H          11.8448   -1.0545    0.0447 H       1  LIG1        0.0662
     49 H          15.6982    1.3030    0.0104 H       1  LIG1        0.0868
     50 N          11.7690    3.4616   -0.0332 N.pl3   1  LIG1       -0.2488
     51 H          12.3332    4.1357   -0.5099 H       1  LIG1        0.1715
     52 H          10.8958    3.3608   -0.5099 H       1  LIG1        0.0854
     53 O          14.4768   -1.1377    0.0511 O.3     1  LIG1       -0.4936
     54 C          13.6053   -2.2715    0.0584 C.3     1  LIG1        0.0789
     55 H          14.1876   -3.1689    0.0747 H       1  LIG1        0.0660
     56 H          12.9808   -2.2357    0.9265 H       1  LIG1        0.0660
     57 H          12.9952   -2.2581   -0.8206 H       1  LIG1        0.0660
@<TRIPOS>BOND
     1    26    24    1
     2    57    54    1
     3    30    28    1
     4    29    28    1
     5    52    41    1
     6    51    50    1
     7    12    10    1
     8    11    10    1
     9    40    41    2
    10    28    22    1
    11    23    21    1
    12    41    37    1
    13    38    36    1
    14    50    42    1
    15    21    22   ar
    16    21    18   ar
    17    22    19   ar
    18    36    37   ar
    19    36    33   ar
    20    37    34   ar
    21    42    47   ar
    22    42    43   ar
    23    47    46   ar
    24    15    14    1
    25    14    13    3
    26    13     7    1
    27     7     4   ar
    28     7     6   ar
    29    18     4    1
    30    18    16   ar
    31     4     2   ar
    32     6     8    1
    33     6     3   ar
    34     2     1   ar
    35     2     5    1
    36     1     3   ar
    37     1    10    1
    38     3     9    1
    39    19    33    1
    40    19    17   ar
    41    33    31   ar
    42    34    43    1
    43    34    32   ar
    44    43    44   ar
    45    46    49    1
    46    46    45   ar
    47    16    17   ar
    48    16    24    1
    49    17    20    1
    50    31    32   ar
    51    31    39    1
    52    32    35    1
    53    44    45   ar
    54    44    48    1
    55    45    53    1
    56    24    27    1
    57    24    25    1
    58    53    54    1
    59    54    55    1
    60    54    56    1
