@<TRIPOS>MOLECULE
mol_data/noopt/geoms/mol2/4he4da13li12el-.out
 55 55 0 0 0
SMALL
GASTEIGER

@<TRIPOS>ATOM
      1 C           0.0509    0.0309    0.0002 C.ar    1  LIG1        0.0252
      2 C           1.4592    0.0309    0.0002 C.ar    1  LIG1       -0.0324
      3 C          -0.6045    1.2792    0.0002 C.ar    1  LIG1       -0.0399
      4 C           2.1849    1.2200   -0.0004 C.ar    1  LIG1       -0.0031
      5 H           1.9850   -0.9213    0.0004 H       1  LIG1        0.0642
      6 C           0.1195    2.4666   -0.0004 C.ar    1  LIG1       -0.0440
      7 C           1.5181    2.4458   -0.0008 C.ar    1  LIG1        0.0322
      8 H          -0.4090    3.4165   -0.0003 H       1  LIG1        0.0630
      9 H          -1.9035    1.3287    0.0016 H       1  LIG1        0.0636
     10 N          -0.5709   -1.1108    0.0005 N.pl3   1  LIG1       -0.3579
     11 H          -1.4474   -1.0131   -0.4708 H       1  LIG1        0.1423
     12 H          -0.0133   -1.7941   -0.4709 H       1  LIG1        0.1423
     13 C           2.1896    3.5590   -0.0012 C.1     1  LIG1       -0.0691
     14 C           2.8100    4.5875   -0.0016 C.1     1  LIG1       -0.1139
     15 H           3.3627    5.5037   -0.0019 H       1  LIG1        0.1232
     16 C           4.1518   -0.0588    0.0002 C.3     1  LIG1        0.1310
     17 C           5.5600   -0.0451    0.0016 C.3     2  LIG2        0.0000
     18 C           3.4843    1.1831   -0.0005 C.2     1  LIG1       -0.0153
     19 C           6.2742    1.1510    0.0017 C.2     1  LIG1        0.0113
     20 H           6.0950   -0.9922    0.0024 H       2  LIG2        0.0194
     21 C           4.1968    2.3775   -0.0004 C.2     1  LIG1       -0.0557
     22 C           5.5955    2.3702    0.0006 C.2     1  LIG1       -0.0516
     23 H           3.6591    3.3222   -0.0009 H       1  LIG1        0.0621
     24 N           3.0026   -2.2187   -0.0003 N.1     1  LIG1       -0.1955
     25 C           3.5412   -1.2064   -0.0001 C.1     1  LIG1        0.0780
     26 H           6.2561    3.4899    0.0008 H       1  LIG1        0.0624
     27 C           7.5739    1.1267    0.0029 C.ar    1  LIG1        0.0952
     28 C           8.4364    0.0759    0.0033 C.ar    1  LIG1        0.2076
     29 C           9.7641    0.6124    0.0059 C.ar    1  LIG1        0.0252
     30 C           9.6546    1.9674    0.0051 C.ar    1  LIG1        0.0906
     31 N           8.3154    2.2865    0.0037 N.ar    1  LIG1       -0.3484
     32 H           7.9430    3.2081    0.0028 H       1  LIG1        0.1661
     33 O           8.1118   -1.1830    0.0032 O.3     1  LIG1       -0.2854
     34 C           6.6874   -1.3086    0.0030 C.3     3  LIG3       -0.0776
     35 H           6.4207   -2.3448    0.0027 H       2  LIG2        0.0194
     36 H           6.2877   -0.8377    0.8768 H       2  LIG2        0.0194
     37 H           6.2878   -0.8372   -0.8705 H       2  LIG2        0.0194
     38 C          10.8724   -0.0677    0.0080 C.3     1  LIG1       -0.0339
     39 H          11.6326    0.4908    0.5131 H       1  LIG1        0.0279
     40 H          11.1779   -0.2551   -1.0002 H       1  LIG1        0.0279
     41 H          10.7186   -0.9985    0.5130 H       1  LIG1        0.0279
     42 C          10.5726    2.8879    0.0065 C.ar    1  LIG1        0.1702
     43 C          11.9520    2.9010    0.0075 C.ar    1  LIG1        0.1134
     44 C          12.3536    4.2923    0.0089 C.ar    1  LIG1        0.1736
     45 C          11.1924    5.0374    0.0084 C.ar    1  LIG1        0.1354
     46 O          10.0808    4.1940    0.0069 O.2     1  LIG1       -0.4564
     47 H          10.9054    6.3053    0.0092 H       1  LIG1        0.1068
     48 C          12.7574    1.8806    0.0074 C.1     1  LIG1       -0.0621
     49 C          13.5016    0.9377    0.0074 C.1     1  LIG1       -0.1137
     50 H          14.1646    0.0978    0.0073 H       1  LIG1        0.1232
     51 O          13.5787    4.7273    0.0101 O.3     1  LIG1       -0.4907
     52 C          14.4795    3.6166    0.0105 C.3     1  LIG1        0.0790
     53 H          15.4877    3.9751    0.0113 H       1  LIG1        0.0660
     54 H          14.3118    3.0216    0.8839 H       1  LIG1        0.0660
     55 H          14.3131    3.0221   -0.8634 H       1  LIG1        0.0660
@<TRIPOS>BOND
     1    40    38    1
     2    37    34    1
     3    55    52    1
     4    12    10    1
     5    11    10    1
     6    15    14    1
     7    14    13    3
     8    13     7    1
     9    23    21    1
    10     7     4   ar
    11     7     6   ar
    12    18    21    2
    13    18     4    1
    14    18    16    1
    15    21    22    1
    16     4     2   ar
    17     6     8    1
    18     6     3   ar
    19    24    25    3
    20    25    16    1
    21     1     2   ar
    22     1     3   ar
    23     1    10    1
    24     2     5    1
    25     3     9    1
    26    22    26    1
    27    22    19    2
    28    19    27    1
    29    20    34    1
    30    35    34    1
    31    32    31    1
    32    27    28   ar
    33    27    31   ar
    34    34    36    1
    35    33    28    1
    36    28    29   ar
    37    31    30   ar
    38    30    29   ar
    39    30    42    1
    40    29    38    1
    41    42    46   ar
    42    42    43   ar
    43    46    45   ar
    44    50    49    1
    45    49    48    3
    46    48    43    1
    47    43    44   ar
    48    38    41    1
    49    38    39    1
    50    45    44   ar
    51    45    47    1
    52    44    51    1
    53    51    52    1
    54    52    53    1
    55    52    54    1
