@<TRIPOS>MOLECULE
mol_data/noopt/geoms/mol2/4hf12hi(150)6lh(290)6eh(350).out
 55 58 0 0 0
SMALL
GASTEIGER

@<TRIPOS>ATOM
      1 C           0.0509    0.0309    0.0002 C.ar    1  LIG1        0.0254
      2 C           1.4592    0.0309    0.0002 C.ar    1  LIG1       -0.0268
      3 C          -0.6045    1.2792    0.0002 C.ar    1  LIG1       -0.0376
      4 C           2.1849    1.2200   -0.0004 C.ar    1  LIG1        0.0622
      5 H           1.9850   -0.9213    0.0004 H       1  LIG1        0.0644
      6 C           0.1195    2.4666   -0.0004 C.ar    1  LIG1       -0.0177
      7 C           1.5181    2.4458   -0.0008 C.ar    1  LIG1        0.1277
      8 H          -0.4090    3.4165   -0.0003 H       1  LIG1        0.0655
      9 H          -1.9035    1.3287    0.0016 H       1  LIG1        0.0637
     10 N          -0.5709   -1.1108    0.0005 N.pl3   1  LIG1       -0.3579
     11 H          -1.4474   -1.0131   -0.4708 H       1  LIG1        0.1423
     12 H          -0.0133   -1.7941   -0.4709 H       1  LIG1        0.1423
     13 O           2.1896    3.5590   -0.0012 O.3     1  LIG1       -0.5061
     14 H           1.5802    4.3008   -0.0013 H       1  LIG1        0.2922
     15 C           3.4844    1.1831   -0.0005 C.ar    1  LIG1        0.1600
     16 C           4.4919    2.0182    0.4361 C.ar    1  LIG1        0.0746
     17 C           5.7424    1.3594    0.1209 C.ar    1  LIG1        0.0168
     18 C           5.4158    0.1650   -0.4876 C.ar    1  LIG1        0.1456
     19 O           4.0294    0.0334   -0.5738 O.2     1  LIG1       -0.4524
     20 N           4.3709    3.1740    1.0186 N.pl3   1  LIG1       -0.3548
     21 H           5.1299    3.7655    0.7465 H       1  LIG1        0.1424
     22 H           3.5059    3.5955    0.7465 H       1  LIG1        0.1424
     23 C           6.9295    1.8260    0.3737 C.3     1  LIG1       -0.0343
     24 H           6.8442    2.7312    0.9379 H       1  LIG1        0.0279
     25 H           7.4376    2.0258   -0.5465 H       1  LIG1        0.0279
     26 H           7.4834    1.1050    0.9378 H       1  LIG1        0.0279
     27 C           7.0347   -1.5129   -0.2002 C.ar    1  LIG1        0.2261
     28 C           6.0828   -0.8347   -0.9834 C.ar    1  LIG1        0.0808
     29 C           5.8747   -1.2602   -2.2967 C.ar    1  LIG1       -0.0231
     30 C           6.6178   -2.3389   -2.7792 C.ar    1  LIG1        0.0519
     31 C           7.5469   -2.9526   -1.9192 C.ar    1  LIG1        0.0981
     32 N           7.7602   -2.5552   -0.6496 N.ar    1  LIG1       -0.2104
     33 H           5.1401   -0.7542   -2.9390 H       1  LIG1        0.0645
     34 O           7.2637   -1.1538    1.0281 O.3     1  LIG1       -0.4792
     35 C           8.4844   -1.7468    1.4790 C.3     1  LIG1        0.0804
     36 H           8.6726   -1.4508    2.4899 H       1  LIG1        0.0660
     37 H           8.4031   -2.8125    1.4286 H       1  LIG1        0.0660
     38 H           9.2908   -1.4208    0.8559 H       1  LIG1        0.0660
     39 N           6.4611   -2.7729   -3.9946 N.pl3   1  LIG1       -0.3563
     40 H           5.8026   -2.1923   -4.4735 H       1  LIG1        0.1424
     41 H           7.3385   -2.7469   -4.4735 H       1  LIG1        0.1424
     42 C           9.6663   -3.8731   -2.3426 C.ar    1  LIG1        0.1224
     43 C           8.2622   -3.9605   -2.3224 C.ar    1  LIG1        0.0378
     44 C           7.6620   -5.1486   -2.7432 C.ar    1  LIG1       -0.0277
     45 C           8.4770   -6.2000   -3.1663 C.ar    1  LIG1        0.0436
     46 C           9.8718   -6.0167   -3.1506 C.ar    1  LIG1        0.0496
     47 N          10.4676   -4.8774   -2.7477 N.ar    1  LIG1       -0.2442
     48 H           6.5678   -5.2536   -2.7423 H       1  LIG1        0.0644
     49 H          10.6722   -6.9662   -3.5350 H       1  LIG1        0.0849
     50 C          10.2712   -2.7878   -1.9603 C.1     1  LIG1       -0.0491
     51 C          10.8302   -1.7850   -1.6071 C.1     1  LIG1       -0.1124
     52 H          11.3281   -0.8917   -1.2924 H       1  LIG1        0.1232
     53 N           7.9667   -7.3264   -3.5676 N.pl3   1  LIG1       -0.3568
     54 H           7.1521   -7.1456   -4.1188 H       1  LIG1        0.1424
     55 H           8.6396   -7.8195   -4.1189 H       1  LIG1        0.1424
@<TRIPOS>BOND
     1    41    39    1
     2    40    39    1
     3    55    53    1
     4    54    53    1
     5    39    30    1
     6    53    45    1
     7    49    46    1
     8    45    46   ar
     9    45    44   ar
    10    46    47   ar
    11    33    29    1
    12    30    29   ar
    13    30    31   ar
    14    47    42   ar
    15    44    48    1
    16    44    43   ar
    17    42    43   ar
    18    42    50    1
    19    43    31    1
    20    29    28   ar
    21    50    51    3
    22    31    32   ar
    23    51    52    1
    24    28    18    1
    25    28    27   ar
    26    32    27   ar
    27    19    18   ar
    28    19    15   ar
    29    25    23    1
    30    18    17   ar
    31    12    10    1
    32    11    10    1
    33    27    34    1
    34    14    13    1
    35    13     7    1
    36     7     4   ar
    37     7     6   ar
    38    15     4    1
    39    15    16   ar
    40     4     2   ar
    41     6     8    1
    42     6     3   ar
    43     2     1   ar
    44     2     5    1
    45     3     1   ar
    46     3     9    1
    47     1    10    1
    48    17    23    1
    49    17    16   ar
    50    23    26    1
    51    23    24    1
    52    16    20    1
    53    22    20    1
    54    21    20    1
    55    38    35    1
    56    34    35    1
    57    37    35    1
    58    35    36    1
