@<TRIPOS>MOLECULE
mol_data/noopt/geoms/mol2/4hf13le(320)13ll(40)13ih(260).out
 58 59 0 0 0
SMALL
GASTEIGER

@<TRIPOS>ATOM
      1 C           0.0509    0.0309    0.0002 C.2     1  LIG1        0.0419
      2 C           1.4592    0.0309    0.0002 C.3     2  LIG2       -0.0309
      3 C          -0.6045    1.2792    0.0002 C.2     1  LIG1       -0.0502
      4 C           2.1849    1.2200   -0.0004 C.2     1  LIG1        0.0521
      5 H           1.9850   -0.9213    0.0004 H       1  LIG1        0.0309
      6 C           0.1195    2.4666   -0.0004 C.3     1  LIG1        0.0502
      7 C           1.5181    2.4458   -0.0008 C.2     1  LIG1        0.1118
      8 H          -0.4090    3.4165   -0.0003 H       1  LIG1        0.0432
      9 H          -1.9035    1.3287    0.0016 H       1  LIG1        0.0598
     10 N          -0.5709   -1.1108    0.0005 N.pl3   1  LIG1       -0.3568
     11 H          -1.4474   -1.0131   -0.4708 H       1  LIG1        0.1424
     12 H          -0.0133   -1.7941   -0.4709 H       1  LIG1        0.1424
     13 O           2.1896    3.5590   -0.0012 O.2     1  LIG1       -0.5097
     14 H           1.5802    4.3008   -0.0013 H       1  LIG1        0.2917
     15 C           3.4844    1.1831   -0.0005 C.ar    1  LIG1        0.0944
     16 C           4.3427    0.3398   -0.6330 C.ar    1  LIG1        0.1613
     17 C           5.6722    0.7456   -0.2891 C.ar    1  LIG1        0.0937
     18 C           5.5679    1.8202    0.5370 C.ar    1  LIG1        0.0863
     19 N           4.2302    2.0911    0.7167 N.ar    1  LIG1       -0.3489
     20 H           3.8614    2.8260    1.2752 H       1  LIG1        0.1661
     21 O           4.0134   -0.6524   -1.4058 O.3     1  LIG1       -0.4917
     22 C           2.6131   -0.5919   -1.6896 C.3     1  LIG1        0.0789
     23 H           2.3425   -1.4086   -2.3258 H       1  LIG1        0.0660
     24 H           2.0608   -0.6540   -0.7752 H       1  LIG1        0.0660
     25 H           2.3881    0.3320   -2.1801 H       1  LIG1        0.0660
     26 C           6.7774    0.1916   -0.6911 C.1     1  LIG1       -0.0638
     27 C           7.7986   -0.3203   -1.0626 C.1     1  LIG1       -0.1137
     28 H           8.7083   -0.7763   -1.3934 H       1  LIG1        0.1232
     29 C           6.4893    2.5360    1.1103 C.ar    1  LIG1        0.1107
     30 C           7.3969    2.2039    2.0663 C.ar    1  LIG1        0.1890
     31 C           8.1767    3.3733    2.3404 C.ar    1  LIG1        0.1890
     32 C           7.7124    4.3682    1.5386 C.ar    1  LIG1        0.1096
     33 N           6.6790    3.8600    0.7842 N.ar    1  LIG1       -0.3459
     34 H           6.1537    4.3681    0.1105 H       1  LIG1        0.1662
     35 O           7.5287    1.0386    2.6272 O.3     1  LIG1       -0.4895
     36 C           6.2376    0.4592    2.8331 C.3     1  LIG1        0.0791
     37 H           6.3465   -0.5000    3.2946 H       1  LIG1        0.0660
     38 H           5.6577    1.0965    3.4676 H       1  LIG1        0.0660
     39 H           5.7424    0.3477    1.8912 H       1  LIG1        0.0660
     40 O           9.1500    3.4697    3.1968 O.3     1  LIG1       -0.4895
     41 C           9.6401    2.1636    3.5112 C.3     1  LIG1        0.0791
     42 H          10.4413    2.2433    4.2159 H       1  LIG1        0.0660
     43 H           8.8503    1.5784    3.9338 H       1  LIG1        0.0660
     44 H           9.9955    1.6917    2.6191 H       1  LIG1        0.0660
     45 C           8.0945    5.6053    1.4220 C.ar    1  LIG1        0.0714
     46 C           8.1403    6.4151    0.3312 C.ar    1  LIG1       -0.0030
     47 C           8.6444    7.6844    0.7617 C.ar    1  LIG1        0.0457
     48 C           8.8828    7.5950    2.0971 C.ar    1  LIG1        0.0233
     49 N           8.5480    6.3236    2.5053 N.ar    1  LIG1       -0.3576
     50 H           8.6213    5.9791    3.4349 H       1  LIG1        0.1654
     51 H           9.3412    8.4786    2.9332 H       1  LIG1        0.0826
     52 C           7.7913    6.0925   -0.8792 C.3     1  LIG1       -0.0359
     53 H           7.9438    5.0437   -1.0268 H       1  LIG1        0.0279
     54 H           8.3852    6.6414   -1.5799 H       1  LIG1        0.0279
     55 H           6.7578    6.3269   -1.0268 H       1  LIG1        0.0279
     56 N           8.8390    8.7316    0.0163 N.pl3   1  LIG1       -0.3566
     57 H           9.6423    8.5851   -0.5610 H       1  LIG1        0.1424
     58 H           8.0368    8.8835   -0.5611 H       1  LIG1        0.1424
@<TRIPOS>BOND
     1    23    22    1
     2    25    22    1
     3    22    21    1
     4    22    24    1
     5    54    52    1
     6    21    16    1
     7    28    27    1
     8    27    26    3
     9    53    52    1
    10    55    52    1
    11    52    46    1
    12    26    17    1
    13    16    17   ar
    14    16    15   ar
    15    58    56    1
    16    57    56    1
    17    12    10    1
    18    11    10    1
    19    17    18   ar
    20    14    13    1
    21    13     7    1
    22     7     6    1
    23     7     4    2
    24    15     4    1
    25    15    19   ar
    26     6     8    1
    27     6     3    1
    28     1     3    2
    29     1    10    1
    30     2     5    1
    31     3     9    1
    32    56    47    1
    33    34    33    1
    34    46    47   ar
    35    46    45   ar
    36    18    19   ar
    37    18    29    1
    38    19    20    1
    39    47    48   ar
    40    33    29   ar
    41    33    32   ar
    42    29    30   ar
    43    45    32    1
    44    45    49   ar
    45    32    31   ar
    46    39    36    1
    47    30    31   ar
    48    30    35    1
    49    48    49   ar
    50    48    51    1
    51    31    40    1
    52    49    50    1
    53    44    41    1
    54    35    36    1
    55    36    37    1
    56    36    38    1
    57    40    41    1
    58    41    43    1
    59    41    42    1
