@<TRIPOS>MOLECULE
mol_data/noopt/geoms/mol2/4hf13li(250)12ae(230)4da(70).out
 50 53 0 0 0
SMALL
GASTEIGER

@<TRIPOS>ATOM
      1 C           0.0509    0.0309    0.0002 C.ar    1  LIG1        0.0254
      2 C           1.4592    0.0309    0.0002 C.ar    1  LIG1       -0.0283
      3 C          -0.6045    1.2792    0.0002 C.ar    1  LIG1       -0.0376
      4 C           2.1849    1.2200   -0.0004 C.ar    1  LIG1        0.0450
      5 H           1.9850   -0.9213    0.0004 H       1  LIG1        0.0644
      6 C           0.1195    2.4666   -0.0004 C.ar    1  LIG1       -0.0178
      7 C           1.5181    2.4458   -0.0008 C.ar    1  LIG1        0.1262
      8 H          -0.4090    3.4165   -0.0003 H       1  LIG1        0.0655
      9 H          -1.9035    1.3287    0.0016 H       1  LIG1        0.0637
     10 N          -0.5709   -1.1108    0.0005 N.pl3   1  LIG1       -0.3579
     11 H          -1.4474   -1.0131   -0.4708 H       1  LIG1        0.1423
     12 H          -0.0133   -1.7941   -0.4709 H       1  LIG1        0.1423
     13 O           2.1896    3.5590   -0.0012 O.3     1  LIG1       -0.5061
     14 H           1.5802    4.3008   -0.0013 H       1  LIG1        0.2922
     15 C           3.4844    1.1831   -0.0005 C.ar    1  LIG1        0.0931
     16 C           4.3767    1.5390   -0.9623 C.ar    1  LIG1        0.1489
     17 C           5.6878    1.2939   -0.4411 C.ar    1  LIG1        0.0201
     18 C           5.5390    0.8007    0.8170 C.ar    1  LIG1        0.0891
     19 N           4.1916    0.7308    1.0905 N.ar    1  LIG1       -0.3485
     20 H           3.7927    0.4059    1.9411 H       1  LIG1        0.1661
     21 O           4.0890    2.0127   -2.1382 O.3     1  LIG1       -0.4927
     22 C           5.1355    2.8864   -2.5700 C.3     1  LIG1        0.0789
     23 H           4.8984    3.2759   -3.5379 H       1  LIG1        0.0660
     24 H           5.2353    3.6940   -1.8752 H       1  LIG1        0.0660
     25 H           6.0559    2.3430   -2.6199 H       1  LIG1        0.0660
     26 C           6.8149    1.5036   -1.0546 C.3     1  LIG1       -0.0341
     27 H           7.1983    2.4635   -0.7781 H       1  LIG1        0.0279
     28 H           6.6561    1.4741   -2.1124 H       1  LIG1        0.0279
     29 H           7.5178    0.7457   -0.7781 H       1  LIG1        0.0279
     30 C           6.4295    0.4297    1.6884 C.ar    1  LIG1        0.1533
     31 C           7.7928    0.5868    1.8291 C.ar    1  LIG1        0.0017
     32 C           8.1643   -0.0911    3.0536 C.ar    1  LIG1        0.0710
     33 C           7.0027   -0.6176    3.5802 C.ar    1  LIG1        0.1523
     34 O           5.9195   -0.3097    2.7564 O.2     1  LIG1       -0.4521
     35 H           8.6077    1.2146    1.0342 H       1  LIG1        0.0668
     36 C           9.3672   -0.1723    3.5397 C.1     1  LIG1       -0.0658
     37 C          10.4788   -0.2474    3.9888 C.1     1  LIG1       -0.1138
     38 H          11.4689   -0.3143    4.3889 H       1  LIG1        0.1232
     39 C           6.5245   -0.6674    5.8765 C.ar    1  LIG1        0.0624
     40 C           6.1940   -1.4651    6.9890 C.ar    1  LIG1       -0.0437
     41 C           6.6958   -1.3129    4.6348 C.ar    1  LIG1        0.0358
     42 C           6.0398   -2.8447    6.8726 C.ar    1  LIG1       -0.0605
     43 H           6.0574   -0.9873    7.9566 H       1  LIG1        0.0631
     44 C           6.5420   -2.6902    4.5180 C.ar    1  LIG1       -0.0498
     45 C           6.2131   -3.4654    5.6349 C.ar    1  LIG1       -0.0610
     46 H           6.6795   -3.1645    3.5497 H       1  LIG1        0.0625
     47 H           5.7343   -3.5507    7.9205 H       1  LIG1        0.0618
     48 N           6.7695    1.7456    6.1982 N.1     1  LIG1       -0.1908
     49 C           6.6547    0.6148    6.0474 C.1     1  LIG1        0.0999
     50 H           6.0708   -4.7525    5.5197 H       1  LIG1        0.0618
@<TRIPOS>BOND
     1    23    22    1
     2    25    22    1
     3    22    21    1
     4    22    24    1
     5    21    16    1
     6    28    26    1
     7    26    29    1
     8    26    27    1
     9    26    17    1
    10    16    17   ar
    11    16    15   ar
    12    12    10    1
    13    11    10    1
    14    17    18   ar
    15    14    13    1
    16    13     7    1
    17     7     6   ar
    18     7     4   ar
    19    15     4    1
    20    15    19   ar
    21     6     8    1
    22     6     3   ar
    23     4     2   ar
    24     1     3   ar
    25     1     2   ar
    26     1    10    1
    27     3     9    1
    28     2     5    1
    29    18    19   ar
    30    18    30    1
    31    35    31    1
    32    19    20    1
    33    30    31   ar
    34    30    34   ar
    35    31    32   ar
    36    34    33   ar
    37    32    36    1
    38    32    33   ar
    39    36    37    3
    40    46    44    1
    41    33    41    1
    42    37    38    1
    43    44    41   ar
    44    44    45   ar
    45    41    39   ar
    46    50    45    1
    47    45    42   ar
    48    39    49    1
    49    39    40   ar
    50    49    48    3
    51    42    40   ar
    52    42    47    1
    53    40    43    1
