@<TRIPOS>MOLECULE
mol_data/noopt/geoms/mol2/4hf13de(90)4ld(330)13hh(70).out
 53 56 0 0 0
SMALL
GASTEIGER

@<TRIPOS>ATOM
      1 C           0.0509    0.0309    0.0002 C.ar    1  LIG1        0.0254
      2 C           1.4592    0.0309    0.0002 C.ar    1  LIG1       -0.0284
      3 C          -0.6045    1.2792    0.0002 C.ar    1  LIG1       -0.0376
      4 C           2.1849    1.2200   -0.0004 C.ar    1  LIG1        0.0427
      5 H           1.9850   -0.9213    0.0004 H       1  LIG1        0.0644
      6 C           0.1195    2.4666   -0.0004 C.ar    1  LIG1       -0.0178
      7 C           1.5181    2.4458   -0.0008 C.ar    1  LIG1        0.1261
      8 H          -0.4090    3.4165   -0.0003 H       1  LIG1        0.0655
      9 H          -1.9035    1.3287    0.0016 H       1  LIG1        0.0637
     10 N          -0.5709   -1.1108    0.0005 N.pl3   1  LIG1       -0.3579
     11 H          -1.4474   -1.0131   -0.4708 H       1  LIG1        0.1423
     12 H          -0.0133   -1.7941   -0.4709 H       1  LIG1        0.1423
     13 O           2.1896    3.5590   -0.0012 O.3     1  LIG1       -0.5061
     14 H           1.5802    4.3008   -0.0013 H       1  LIG1        0.2922
     15 C           3.4844    1.1831   -0.0005 C.ar    1  LIG1        0.0693
     16 C           4.3660    1.1575    1.0339 C.ar    1  LIG1        0.0930
     17 C           5.6830    1.1215    0.4726 C.ar    1  LIG1        0.0680
     18 C           5.5481    1.1249   -0.8801 C.ar    1  LIG1        0.0673
     19 N           4.2037    1.1630   -1.1741 N.ar    1  LIG1       -0.3520
     20 H           3.8142    1.1737   -2.0885 H       1  LIG1        0.1660
     21 N           3.8000    1.1734    3.4141 N.1     1  LIG1       -0.1908
     22 C           4.0653    1.1660    2.2986 C.1     1  LIG1        0.1025
     23 C           6.8031    1.0908    1.1316 C.1     1  LIG1       -0.0662
     24 C           7.8381    1.0623    1.7406 C.1     1  LIG1       -0.1138
     25 H           8.7601    1.0370    2.2830 H       1  LIG1        0.1232
     26 C           6.4653    0.0401   -2.7472 C.ar    1  LIG1        0.1299
     27 C           7.4614    0.0583   -3.7426 C.ar    1  LIG1       -0.0089
     28 C           6.4483    1.1001   -1.8176 C.ar    1  LIG1        0.0424
     29 C           8.3996    1.0858   -3.8117 C.ar    1  LIG1        0.0210
     30 H           7.4928   -0.7499   -4.4698 H       1  LIG1        0.0661
     31 C           7.3847    2.1260   -1.8862 C.ar    1  LIG1       -0.0310
     32 C           8.3662    2.1265   -2.8828 C.ar    1  LIG1        0.0618
     33 H           7.3507    2.9321   -1.1578 H       1  LIG1        0.0638
     34 O           5.6174   -0.9452   -2.7340 O.3     1  LIG1       -0.4944
     35 C           4.2843   -0.4277   -2.7292 C.3     1  LIG1        0.0788
     36 H           3.5868   -1.2390   -2.7186 H       1  LIG1        0.0660
     37 H           4.1400    0.1782   -1.8591 H       1  LIG1        0.0660
     38 H           4.1286    0.1650   -3.6064 H       1  LIG1        0.0660
     39 N          10.0088    3.9362   -2.9939 N.1     1  LIG1       -0.1908
     40 C           9.2390    3.0881   -2.9418 C.1     1  LIG1        0.0998
     41 C           9.3054    1.0710   -4.7441 C.ar    1  LIG1        0.0706
     42 C          10.6034    0.6688   -4.7064 C.ar    1  LIG1        0.0712
     43 C          11.1509    0.8677   -6.0146 C.ar    1  LIG1        0.0637
     44 C          10.1629    1.3810   -6.7946 C.ar    1  LIG1        0.0249
     45 N           9.0314    1.5075   -6.0206 N.ar    1  LIG1       -0.3575
     46 H           8.1556    1.8579   -6.3340 H       1  LIG1        0.1654
     47 H          10.1711    1.7264   -8.0479 H       1  LIG1        0.0826
     48 N          11.2294    0.1933   -3.6711 N.pl3   1  LIG1       -0.3549
     49 H          11.1949   -0.8060   -3.6907 H       1  LIG1        0.1424
     50 H          12.1828    0.4943   -3.6907 H       1  LIG1        0.1424
     51 N          12.3675    0.6063   -6.3909 N.pl3   1  LIG1       -0.3554
     52 H          12.3746   -0.2303   -6.9385 H       1  LIG1        0.1424
     53 H          12.7175    1.3662   -6.9386 H       1  LIG1        0.1424
@<TRIPOS>BOND
     1    47    44    1
     2    53    51    1
     3    52    51    1
     4    44    45   ar
     5    44    43   ar
     6    51    43    1
     7    46    45    1
     8    45    41   ar
     9    43    42   ar
    10    41    42   ar
    11    41    29    1
    12    42    48    1
    13    30    27    1
    14    29    27   ar
    15    29    32   ar
    16    27    26   ar
    17    50    48    1
    18    49    48    1
    19    38    35    1
    20    39    40    3
    21    40    32    1
    22    32    31   ar
    23    26    34    1
    24    26    28   ar
    25    34    35    1
    26    35    36    1
    27    35    37    1
    28    20    19    1
    29    31    28   ar
    30    31    33    1
    31    28    18    1
    32    19    18   ar
    33    19    15   ar
    34    18    17   ar
    35    12    10    1
    36    11    10    1
    37    14    13    1
    38    13     7    1
    39     7     4   ar
    40     7     6   ar
    41    15     4    1
    42    15    16   ar
    43     4     2   ar
    44     6     8    1
    45     6     3   ar
    46     1     3   ar
    47     1     2   ar
    48     1    10    1
    49     3     9    1
    50     2     5    1
    51    17    16   ar
    52    17    23    1
    53    16    22    1
    54    23    24    3
    55    24    25    1
    56    22    21    3
