@<TRIPOS>MOLECULE
mol_data/noopt/geoms/mol2/4hf4ei4ha-6ie.out
 56 59 0 0 0
SMALL
GASTEIGER

@<TRIPOS>ATOM
      1 C           0.0509    0.0309    0.0002 C.ar    1  LIG1        0.0253
      2 C           1.4592    0.0309    0.0002 C.ar    1  LIG1       -0.0298
      3 C          -0.6045    1.2792    0.0002 C.ar    1  LIG1       -0.0376
      4 C           2.1849    1.2200   -0.0004 C.ar    1  LIG1        0.0265
      5 H           1.9850   -0.9213    0.0004 H       1  LIG1        0.0643
      6 C           0.1195    2.4666   -0.0004 C.ar    1  LIG1       -0.0178
      7 C           1.5181    2.4458   -0.0008 C.ar    1  LIG1        0.1247
      8 H          -0.4090    3.4165   -0.0003 H       1  LIG1        0.0655
      9 H          -1.9035    1.3287    0.0016 H       1  LIG1        0.0637
     10 N          -0.5709   -1.1108    0.0005 N.pl3   1  LIG1       -0.3579
     11 H          -1.4474   -1.0131   -0.4708 H       1  LIG1        0.1423
     12 H          -0.0133   -1.7941   -0.4709 H       1  LIG1        0.1423
     13 O           2.1896    3.5590   -0.0012 O.3     1  LIG1       -0.5062
     14 H           1.5802    4.3008   -0.0013 H       1  LIG1        0.2922
     15 C           4.1518   -0.0588    0.0002 C.ar    1  LIG1        0.0331
     16 C           5.5600   -0.0451    0.0016 C.ar    1  LIG1       -0.0377
     17 C           3.4843    1.1831   -0.0005 C.ar    1  LIG1        0.0013
     18 C           6.2742    1.1510    0.0017 C.ar    1  LIG1       -0.0120
     19 H           6.0950   -0.9922    0.0024 H       1  LIG1        0.0636
     20 C           4.1968    2.3775   -0.0004 C.ar    1  LIG1       -0.0492
     21 C           5.5955    2.3702    0.0006 C.ar    1  LIG1       -0.0420
     22 H           3.6591    3.3222   -0.0009 H       1  LIG1        0.0627
     23 C           3.5412   -1.2064   -0.0001 C.1     1  LIG1       -0.0690
     24 C           2.9769   -2.2669   -0.0003 C.1     1  LIG1       -0.1139
     25 H           2.4743   -3.2115   -0.0006 H       1  LIG1        0.1232
     26 C           6.2563    3.4901    0.0008 C.3     1  LIG1       -0.0391
     27 H           5.6851    4.2412    0.5053 H       1  LIG1        0.0278
     28 H           6.4376    3.7975   -1.0080 H       1  LIG1        0.0278
     29 H           7.1900    3.3532    0.5052 H       1  LIG1        0.0278
     30 C           8.2534   -0.1085    0.0256 C.ar    1  LIG1        0.0329
     31 C           9.6614   -0.0811    0.0275 C.ar    1  LIG1       -0.0327
     32 C           7.5739    1.1267    0.0029 C.ar    1  LIG1        0.0031
     33 C          10.3639    1.1216    0.0070 C.ar    1  LIG1       -0.0144
     34 H          10.2055   -1.0228    0.0451 H       1  LIG1        0.0642
     35 C           8.2747    2.3277   -0.0175 C.ar    1  LIG1       -0.0517
     36 C           9.6735    2.3341   -0.0157 C.ar    1  LIG1       -0.0533
     37 H           7.7279    3.2670   -0.0348 H       1  LIG1        0.0624
     38 N           7.6538   -1.2619    0.0451 N.pl3   1  LIG1       -0.3575
     39 H           6.7724   -1.1872   -0.4213 H       1  LIG1        0.1423
     40 H           8.2213   -1.9404   -0.4213 H       1  LIG1        0.1423
     41 H          10.3232    3.4599   -0.0347 H       1  LIG1        0.0624
     42 C          12.3858    2.3175    0.0107 C.ar    1  LIG1        0.0460
     43 C          11.6638    1.1100    0.0093 C.ar    1  LIG1        0.0044
     44 C          12.3745   -0.0917    0.0108 C.ar    1  LIG1       -0.0354
     45 C          13.7697   -0.0473    0.0133 C.ar    1  LIG1        0.0433
     46 C          14.4015    1.2098    0.0144 C.ar    1  LIG1        0.0433
     47 N          13.7316    2.3787    0.0132 N.ar    1  LIG1       -0.2583
     48 H          11.8448   -1.0549    0.0087 H       1  LIG1        0.0637
     49 H          15.6982    1.3028    0.0168 H       1  LIG1        0.0842
     50 C          11.7688    3.4621    0.0096 C.3     1  LIG1       -0.0218
     51 H          10.8304    3.3619    0.5137 H       1  LIG1        0.0293
     52 H          11.5999    3.7752   -0.9996 H       1  LIG1        0.0293
     53 H          12.3685    4.1910    0.5136 H       1  LIG1        0.0293
     54 C          14.4768   -1.1382    0.0145 C.1     1  LIG1       -0.0681
     55 C          15.1301   -2.1462    0.0157 C.1     1  LIG1       -0.1139
     56 H          15.7121   -3.0441    0.0167 H       1  LIG1        0.1232
@<TRIPOS>BOND
     1    28    26    1
     2    52    50    1
     3    12    10    1
     4    11    10    1
     5    40    38    1
     6    39    38    1
     7    37    35    1
     8    41    36    1
     9    35    36   ar
    10    35    32   ar
    11    36    33   ar
    12    14    13    1
    13    13     7    1
    14    22    20    1
    15     7     6   ar
    16     7     4   ar
    17    25    24    1
    18    17    20   ar
    19    17     4    1
    20    17    15   ar
    21    20    21   ar
    22     6     8    1
    23     6     3   ar
    24     4     2   ar
    25    24    23    3
    26    23    15    1
    27     1     3   ar
    28     1     2   ar
    29     1    10    1
    30     3     9    1
    31     2     5    1
    32    15    16   ar
    33    21    26    1
    34    21    18   ar
    35    26    29    1
    36    26    27    1
    37    16    18   ar
    38    16    19    1
    39    18    32    1
    40    32    30   ar
    41    33    43    1
    42    33    31   ar
    43    48    44    1
    44    43    42   ar
    45    43    44   ar
    46    50    42    1
    47    50    53    1
    48    50    51    1
    49    42    47   ar
    50    44    45   ar
    51    47    46   ar
    52    45    46   ar
    53    45    54    1
    54    46    49    1
    55    54    55    3
    56    55    56    1
    57    30    31   ar
    58    30    38    1
    59    31    34    1
