@<TRIPOS>MOLECULE
mol_data/noopt/geoms/mol2/4hf6he(260)13ia(270)6hd(100).out
 51 54 0 0 0
SMALL
GASTEIGER

@<TRIPOS>ATOM
      1 C           0.0509    0.0309    0.0002 C.ar    1  LIG1        0.0253
      2 C           1.4592    0.0309    0.0002 C.ar    1  LIG1       -0.0297
      3 C          -0.6045    1.2792    0.0002 C.ar    1  LIG1       -0.0376
      4 C           2.1849    1.2200   -0.0004 C.ar    1  LIG1        0.0286
      5 H           1.9850   -0.9213    0.0004 H       1  LIG1        0.0643
      6 C           0.1195    2.4666   -0.0004 C.ar    1  LIG1       -0.0178
      7 C           1.5181    2.4458   -0.0008 C.ar    1  LIG1        0.1248
      8 H          -0.4090    3.4165   -0.0003 H       1  LIG1        0.0655
      9 H          -1.9035    1.3287    0.0016 H       1  LIG1        0.0637
     10 N          -0.5709   -1.1108    0.0005 N.pl3   1  LIG1       -0.3579
     11 H          -1.4474   -1.0131   -0.4708 H       1  LIG1        0.1423
     12 H          -0.0133   -1.7941   -0.4709 H       1  LIG1        0.1423
     13 O           2.1896    3.5590   -0.0012 O.3     1  LIG1       -0.5062
     14 H           1.5802    4.3008   -0.0013 H       1  LIG1        0.2922
     15 C           4.1893    0.9518    1.1949 C.ar    1  LIG1        0.1248
     16 C           3.4844    1.1831   -0.0005 C.ar    1  LIG1        0.0264
     17 C           4.2113    1.3701   -1.1777 C.ar    1  LIG1       -0.0331
     18 C           5.6052    1.3205   -1.1217 C.ar    1  LIG1        0.0528
     19 C           6.2194    1.0836    0.1217 C.ar    1  LIG1        0.1048
     20 N           5.5336    0.9008    1.2670 N.ar    1  LIG1       -0.2291
     21 H           3.6952    1.5542   -2.1306 H       1  LIG1        0.0638
     22 N           3.5569    0.7718    2.3164 N.pl3   1  LIG1       -0.3426
     23 H           2.7801    1.3996    2.3655 H       1  LIG1        0.1437
     24 H           3.2272   -0.1709    2.3655 H       1  LIG1        0.1437
     25 C           6.3270    1.4887   -2.1898 C.1     1  LIG1       -0.0674
     26 C           6.9940    1.6440   -3.1766 C.1     1  LIG1       -0.1138
     27 H           7.5881    1.7824   -4.0557 H       1  LIG1        0.1232
     28 C           7.5141    1.0284    0.2247 C.ar    1  LIG1        0.0696
     29 C           8.4744    0.9880   -0.7366 C.ar    1  LIG1       -0.0231
     30 C           9.7420    0.9326   -0.0728 C.ar    1  LIG1       -0.0328
     31 C           9.5007    0.9433    1.2650 C.ar    1  LIG1        0.0505
     32 N           8.1380    1.0015    1.4515 N.ar    1  LIG1       -0.3526
     33 H           7.6776    1.0215    2.3323 H       1  LIG1        0.1660
     34 C           8.2747    0.9967   -2.0215 C.3     1  LIG1       -0.0376
     35 H           7.6842    0.1477   -2.2964 H       1  LIG1        0.0278
     36 H           9.2158    0.9559   -2.5290 H       1  LIG1        0.0278
     37 H           7.7597    1.8934   -2.2964 H       1  LIG1        0.0278
     38 H          10.9101    0.8818   -0.6411 H       1  LIG1        0.0642
     39 C          11.6885    0.6372    2.0638 C.ar    1  LIG1        0.1254
     40 C          10.3235    0.9076    2.2708 C.ar    1  LIG1        0.0390
     41 C           9.8792    1.1350    3.5747 C.ar    1  LIG1       -0.0305
     42 C          10.8048    1.0850    4.6183 C.ar    1  LIG1        0.0706
     43 C          12.1493    0.8068    4.3108 C.ar    1  LIG1        0.0471
     44 N          12.5952    0.5852    3.0588 N.ar    1  LIG1       -0.2388
     45 H           8.8197    1.3483    3.7755 H       1  LIG1        0.0638
     46 H          13.0483    0.7497    5.2480 H       1  LIG1        0.0843
     47 N          12.1499    0.4190    0.8681 N.pl3   1  LIG1       -0.3426
     48 H          11.5272   -0.1897    0.3765 H       1  LIG1        0.1437
     49 H          12.2253    1.2865    0.3765 H       1  LIG1        0.1437
     50 N          10.1203    1.4697    6.9355 N.1     1  LIG1       -0.1908
     51 C          10.4411    1.2894    5.8496 C.1     1  LIG1        0.1007
@<TRIPOS>BOND
     1    27    26    1
     2    26    25    3
     3    36    34    1
     4    35    34    1
     5    37    34    1
     6    25    18    1
     7    21    17    1
     8    34    29    1
     9    17    18   ar
    10    17    16   ar
    11    18    19   ar
    12    29    30   ar
    13    29    28   ar
    14    38    30    1
    15    12    10    1
    16    11    10    1
    17    30    31   ar
    18    14    13    1
    19    13     7    1
    20     7     6   ar
    21     7     4   ar
    22    16     4    1
    23    16    15   ar
    24     6     8    1
    25     6     3   ar
    26     4     2   ar
    27     1     2   ar
    28     1     3   ar
    29     1    10    1
    30     2     5    1
    31     3     9    1
    32    19    28    1
    33    19    20   ar
    34    28    32   ar
    35    49    47    1
    36    48    47    1
    37    47    39    1
    38    15    20   ar
    39    15    22    1
    40    31    32   ar
    41    31    40    1
    42    32    33    1
    43    39    40   ar
    44    39    44   ar
    45    40    41   ar
    46    22    23    1
    47    22    24    1
    48    44    43   ar
    49    41    45    1
    50    41    42   ar
    51    43    42   ar
    52    43    46    1
    53    42    51    1
    54    51    50    3
