@<TRIPOS>MOLECULE
mol_data/noopt/geoms/mol2/4hg4hg4hg-4hg-.out
 54 57 0 0 0
SMALL
GASTEIGER

@<TRIPOS>ATOM
      1 C           0.0509    0.0309    0.0002 C.ar    1  LIG1        0.0252
      2 C           1.4592    0.0309    0.0002 C.ar    1  LIG1       -0.0322
      3 C          -0.6045    1.2792    0.0002 C.ar    1  LIG1       -0.0400
      4 C           2.1849    1.2200   -0.0004 C.ar    1  LIG1       -0.0012
      5 H           1.9850   -0.9213    0.0004 H       1  LIG1        0.0642
      6 C           0.1195    2.4666   -0.0004 C.ar    1  LIG1       -0.0462
      7 C           1.5181    2.4458   -0.0008 C.ar    1  LIG1        0.0126
      8 H          -0.4090    3.4165   -0.0003 H       1  LIG1        0.0629
      9 H          -1.9035    1.3287    0.0016 H       1  LIG1        0.0636
     10 N          -0.5709   -1.1108    0.0005 N.pl3   1  LIG1       -0.3579
     11 H          -1.4474   -1.0131   -0.4708 H       1  LIG1        0.1423
     12 H          -0.0133   -1.7941   -0.4709 H       1  LIG1        0.1423
     13 S           2.1896    3.5589   -0.0012 S.3     1  LIG1       -0.1420
     14 H           1.3580    4.5712   -0.0013 H       1  LIG1        0.1071
     15 C           4.1518   -0.0588    0.0002 C.ar    1  LIG1        0.0330
     16 C           5.5600   -0.0451    0.0016 C.ar    1  LIG1       -0.0316
     17 C           3.4843    1.1831   -0.0005 C.ar    1  LIG1        0.0049
     18 C           6.2742    1.1510    0.0017 C.ar    1  LIG1       -0.0012
     19 H           6.0950   -0.9922    0.0024 H       1  LIG1        0.0642
     20 C           4.1968    2.3775   -0.0004 C.ar    1  LIG1       -0.0385
     21 C           5.5955    2.3702    0.0006 C.ar    1  LIG1        0.0132
     22 H           3.6591    3.3222   -0.0009 H       1  LIG1        0.0635
     23 N           3.5411   -1.2065   -0.0001 N.pl3   1  LIG1       -0.3575
     24 H           2.6638   -1.1171   -0.4716 H       1  LIG1        0.1423
     25 H           4.1054   -1.8841   -0.4716 H       1  LIG1        0.1423
     26 S           6.2561    3.4898    0.0008 S.3     1  LIG1       -0.1420
     27 H           5.4148    4.4939    0.0009 H       1  LIG1        0.1071
     28 C           8.2534   -0.1085    0.0256 C.ar    1  LIG1        0.0330
     29 C           9.6614   -0.0811    0.0275 C.ar    1  LIG1       -0.0316
     30 C           7.5739    1.1267    0.0029 C.ar    1  LIG1        0.0049
     31 C          10.3639    1.1216    0.0070 C.ar    1  LIG1       -0.0012
     32 H          10.2055   -1.0228    0.0451 H       1  LIG1        0.0642
     33 C           8.2747    2.3277   -0.0175 C.ar    1  LIG1       -0.0385
     34 C           9.6735    2.3341   -0.0157 C.ar    1  LIG1        0.0132
     35 H           7.7279    3.2670   -0.0348 H       1  LIG1        0.0635
     36 N           7.6538   -1.2619    0.0451 N.pl3   1  LIG1       -0.3575
     37 H           6.7724   -1.1872   -0.4213 H       1  LIG1        0.1423
     38 H           8.2213   -1.9404   -0.4213 H       1  LIG1        0.1423
     39 S          10.3232    3.4598   -0.0347 S.3     1  LIG1       -0.1420
     40 H           9.4722    4.4558   -0.0411 H       1  LIG1        0.1071
     41 C          12.3552   -0.1185    0.0326 C.ar    1  LIG1        0.0325
     42 C          13.7629   -0.0775    0.0357 C.ar    1  LIG1       -0.0394
     43 C          11.6638    1.1100    0.0093 C.ar    1  LIG1        0.0049
     44 C          14.4537    1.1320    0.0158 C.ar    1  LIG1       -0.0468
     45 H          14.3162   -1.0138    0.0537 H       1  LIG1        0.0636
     46 C          12.3529    2.3178   -0.0105 C.ar    1  LIG1       -0.0390
     47 C          13.7516    2.3377   -0.0075 C.ar    1  LIG1        0.0054
     48 H          11.7970    3.2517   -0.0283 H       1  LIG1        0.0635
     49 H          15.7537    1.1330    0.0192 H       1  LIG1        0.0629
     50 N          11.7669   -1.2777    0.0516 N.pl3   1  LIG1       -0.3575
     51 H          10.8849   -1.2115   -0.4149 H       1  LIG1        0.1423
     52 H          12.3410   -1.9505   -0.4149 H       1  LIG1        0.1423
     53 S          14.3903    3.4697   -0.0260 S.3     1  LIG1       -0.1426
     54 H          13.5298    4.4574   -0.0322 H       1  LIG1        0.1071
@<TRIPOS>BOND
     1    25    23    1
     2    24    23    1
     3    12    10    1
     4    11    10    1
     5    38    36    1
     6    37    36    1
     7    52    50    1
     8    51    50    1
     9    40    39    1
    10    35    33    1
    11    39    34    1
    12    54    53    1
    13    48    46    1
    14    53    47    1
    15    33    34   ar
    16    33    30   ar
    17    34    31   ar
    18    46    47   ar
    19    46    43   ar
    20    47    44   ar
    21    14    13    1
    22    13     7    1
    23    22    20    1
    24     7     6   ar
    25     7     4   ar
    26    17    20   ar
    27    17     4    1
    28    17    15   ar
    29    20    21   ar
    30     6     8    1
    31     6     3   ar
    32     4     2   ar
    33    23    15    1
    34     1     2   ar
    35     1     3   ar
    36     1    10    1
    37     2     5    1
    38     3     9    1
    39    15    16   ar
    40    21    26    1
    41    21    18   ar
    42    26    27    1
    43    16    18   ar
    44    16    19    1
    45    18    30    1
    46    30    28   ar
    47    31    43    1
    48    31    29   ar
    49    43    41   ar
    50    44    49    1
    51    44    42   ar
    52    28    29   ar
    53    28    36    1
    54    29    32    1
    55    41    42   ar
    56    41    50    1
    57    42    45    1
