@<TRIPOS>MOLECULE
mol_data/noopt/geoms/mol2/4hg4hg-4hg-.out
 41 43 0 0 0
SMALL
GASTEIGER

@<TRIPOS>ATOM
      1 C           0.0509    0.0309    0.0002 C.ar    1  LIG1        0.0252
      2 C           1.4592    0.0309    0.0002 C.ar    1  LIG1       -0.0322
      3 C          -0.6045    1.2792    0.0002 C.ar    1  LIG1       -0.0400
      4 C           2.1849    1.2200   -0.0004 C.ar    1  LIG1       -0.0012
      5 H           1.9850   -0.9213    0.0004 H       1  LIG1        0.0642
      6 C           0.1195    2.4666   -0.0004 C.ar    1  LIG1       -0.0462
      7 C           1.5181    2.4458   -0.0008 C.ar    1  LIG1        0.0126
      8 H          -0.4090    3.4165   -0.0003 H       1  LIG1        0.0629
      9 H          -1.9035    1.3287    0.0016 H       1  LIG1        0.0636
     10 N          -0.5709   -1.1108    0.0005 N.pl3   1  LIG1       -0.3579
     11 H          -1.4474   -1.0131   -0.4708 H       1  LIG1        0.1423
     12 H          -0.0133   -1.7941   -0.4709 H       1  LIG1        0.1423
     13 S           2.1896    3.5589   -0.0012 S.3     1  LIG1       -0.1420
     14 H           1.3580    4.5712   -0.0013 H       1  LIG1        0.1071
     15 C           4.1518   -0.0586    0.0215 C.ar    1  LIG1        0.0330
     16 C           5.5600   -0.0449    0.0220 C.ar    1  LIG1       -0.0316
     17 C           3.4843    1.1831   -0.0005 C.ar    1  LIG1        0.0049
     18 C           6.2742    1.1510    0.0009 C.ar    1  LIG1       -0.0012
     19 H           6.0951   -0.9918    0.0390 H       1  LIG1        0.0642
     20 C           4.1968    2.3773   -0.0216 C.ar    1  LIG1       -0.0385
     21 C           5.5955    2.3701   -0.0212 C.ar    1  LIG1        0.0132
     22 H           3.6591    3.3219   -0.0383 H       1  LIG1        0.0635
     23 N           3.5412   -1.2061    0.0416 N.pl3   1  LIG1       -0.3575
     24 H           2.6604   -1.1231   -0.4246 H       1  LIG1        0.1423
     25 H           4.1019   -1.8903   -0.4247 H       1  LIG1        0.1423
     26 S           6.2561    3.4895   -0.0408 S.3     1  LIG1       -0.1420
     27 H           5.4148    4.4936   -0.0474 H       1  LIG1        0.1071
     28 C           8.2534   -0.1084    0.0245 C.ar    1  LIG1        0.0325
     29 C           9.6614   -0.0811    0.0261 C.ar    1  LIG1       -0.0394
     30 C           7.5739    1.1267    0.0018 C.ar    1  LIG1        0.0049
     31 C          10.3639    1.1217    0.0055 C.ar    1  LIG1       -0.0468
     32 H          10.2056   -1.0227    0.0436 H       1  LIG1        0.0636
     33 C           8.2747    2.3278   -0.0187 C.ar    1  LIG1       -0.0390
     34 C           9.6734    2.3341   -0.0171 C.ar    1  LIG1        0.0054
     35 H           7.7279    3.2671   -0.0358 H       1  LIG1        0.0635
     36 H          11.6639    1.1101    0.0076 H       1  LIG1        0.0629
     37 N           7.6539   -1.2618    0.0440 N.pl3   1  LIG1       -0.3575
     38 H           6.7724   -1.1872   -0.4223 H       1  LIG1        0.1423
     39 H           8.2214   -1.9404   -0.4223 H       1  LIG1        0.1423
     40 S          10.3232    3.4599   -0.0362 S.3     1  LIG1       -0.1426
     41 H           9.4722    4.4559   -0.0426 H       1  LIG1        0.1071
@<TRIPOS>BOND
     1    12    10    1
     2    11    10    1
     3    25    23    1
     4    24    23    1
     5    39    37    1
     6    38    37    1
     7    27    26    1
     8    41    40    1
     9    26    21    1
    10    22    20    1
    11    40    34    1
    12    35    33    1
    13    20    21   ar
    14    20    17   ar
    15    21    18   ar
    16    33    34   ar
    17    33    30   ar
    18    34    31   ar
    19    14    13    1
    20    13     7    1
    21     7     4   ar
    22     7     6   ar
    23    17     4    1
    24    17    15   ar
    25     4     2   ar
    26     6     8    1
    27     6     3   ar
    28     2     1   ar
    29     2     5    1
    30     3     1   ar
    31     3     9    1
    32     1    10    1
    33    18    30    1
    34    18    16   ar
    35    30    28   ar
    36    31    36    1
    37    31    29   ar
    38    15    16   ar
    39    15    23    1
    40    16    19    1
    41    28    29   ar
    42    28    37    1
    43    29    32    1
