@<TRIPOS>MOLECULE
mol_data/noopt/geoms/mol2/4hg4hg4hg-.out
 41 43 0 0 0
SMALL
GASTEIGER

@<TRIPOS>ATOM
      1 C           0.0509    0.0309    0.0002 C.ar    1  LIG1        0.0252
      2 C           1.4592    0.0309    0.0002 C.ar    1  LIG1       -0.0322
      3 C          -0.6045    1.2792    0.0002 C.ar    1  LIG1       -0.0400
      4 C           2.1849    1.2200   -0.0004 C.ar    1  LIG1       -0.0012
      5 H           1.9850   -0.9213    0.0004 H       1  LIG1        0.0642
      6 C           0.1195    2.4666   -0.0004 C.ar    1  LIG1       -0.0462
      7 C           1.5181    2.4458   -0.0008 C.ar    1  LIG1        0.0126
      8 H          -0.4090    3.4165   -0.0003 H       1  LIG1        0.0629
      9 H          -1.9035    1.3287    0.0016 H       1  LIG1        0.0636
     10 N          -0.5709   -1.1108    0.0005 N.pl3   1  LIG1       -0.3579
     11 H          -1.4474   -1.0131   -0.4708 H       1  LIG1        0.1423
     12 H          -0.0133   -1.7941   -0.4709 H       1  LIG1        0.1423
     13 S           2.1896    3.5589   -0.0012 S.3     1  LIG1       -0.1420
     14 H           1.3580    4.5712   -0.0013 H       1  LIG1        0.1071
     15 C           4.1518   -0.0588    0.0002 C.ar    1  LIG1        0.0330
     16 C           5.5600   -0.0451    0.0016 C.ar    1  LIG1       -0.0316
     17 C           3.4843    1.1831   -0.0005 C.ar    1  LIG1        0.0049
     18 C           6.2742    1.1510    0.0017 C.ar    1  LIG1       -0.0012
     19 H           6.0950   -0.9922    0.0024 H       1  LIG1        0.0642
     20 C           4.1968    2.3775   -0.0004 C.ar    1  LIG1       -0.0385
     21 C           5.5955    2.3702    0.0006 C.ar    1  LIG1        0.0132
     22 H           3.6591    3.3222   -0.0009 H       1  LIG1        0.0635
     23 N           3.5411   -1.2065   -0.0001 N.pl3   1  LIG1       -0.3575
     24 H           2.6638   -1.1171   -0.4716 H       1  LIG1        0.1423
     25 H           4.1054   -1.8841   -0.4716 H       1  LIG1        0.1423
     26 S           6.2561    3.4898    0.0008 S.3     1  LIG1       -0.1420
     27 H           5.4148    4.4939    0.0009 H       1  LIG1        0.1071
     28 C           8.2534   -0.1085    0.0256 C.ar    1  LIG1        0.0325
     29 C           9.6614   -0.0811    0.0275 C.ar    1  LIG1       -0.0394
     30 C           7.5739    1.1267    0.0029 C.ar    1  LIG1        0.0049
     31 C          10.3639    1.1216    0.0070 C.ar    1  LIG1       -0.0468
     32 H          10.2055   -1.0228    0.0451 H       1  LIG1        0.0636
     33 C           8.2747    2.3277   -0.0175 C.ar    1  LIG1       -0.0390
     34 C           9.6735    2.3341   -0.0157 C.ar    1  LIG1        0.0054
     35 H           7.7279    3.2670   -0.0348 H       1  LIG1        0.0635
     36 H          11.6639    1.1100    0.0093 H       1  LIG1        0.0629
     37 N           7.6538   -1.2619    0.0451 N.pl3   1  LIG1       -0.3575
     38 H           6.7724   -1.1872   -0.4213 H       1  LIG1        0.1423
     39 H           8.2213   -1.9404   -0.4213 H       1  LIG1        0.1423
     40 S          10.3232    3.4598   -0.0347 S.3     1  LIG1       -0.1426
     41 H           9.4722    4.4558   -0.0411 H       1  LIG1        0.1071
@<TRIPOS>BOND
     1    25    23    1
     2    24    23    1
     3    12    10    1
     4    11    10    1
     5    39    37    1
     6    38    37    1
     7    41    40    1
     8    35    33    1
     9    40    34    1
    10    33    34   ar
    11    33    30   ar
    12    34    31   ar
    13    14    13    1
    14    13     7    1
    15    22    20    1
    16     7     6   ar
    17     7     4   ar
    18    17    20   ar
    19    17     4    1
    20    17    15   ar
    21    20    21   ar
    22     6     8    1
    23     6     3   ar
    24     4     2   ar
    25    23    15    1
    26     1     2   ar
    27     1     3   ar
    28     1    10    1
    29     2     5    1
    30     3     9    1
    31    15    16   ar
    32    21    26    1
    33    21    18   ar
    34    26    27    1
    35    16    18   ar
    36    16    19    1
    37    18    30    1
    38    30    28   ar
    39    31    36    1
    40    31    29   ar
    41    28    29   ar
    42    28    37    1
    43    29    32    1
