@<TRIPOS>MOLECULE
mol_data/noopt/geoms/mol2/4hg4hg-.out
 28 29 0 0 0
SMALL
GASTEIGER

@<TRIPOS>ATOM
      1 C           0.0509    0.0309    0.0002 C.ar    1  LIG1        0.0252
      2 C           1.4592    0.0309    0.0002 C.ar    1  LIG1       -0.0322
      3 C          -0.6045    1.2792    0.0002 C.ar    1  LIG1       -0.0400
      4 C           2.1849    1.2200   -0.0004 C.ar    1  LIG1       -0.0012
      5 H           1.9850   -0.9213    0.0004 H       1  LIG1        0.0642
      6 C           0.1195    2.4666   -0.0004 C.ar    1  LIG1       -0.0462
      7 C           1.5181    2.4458   -0.0008 C.ar    1  LIG1        0.0126
      8 H          -0.4090    3.4165   -0.0003 H       1  LIG1        0.0629
      9 H          -1.9035    1.3287    0.0016 H       1  LIG1        0.0636
     10 N          -0.5709   -1.1108    0.0005 N.pl3   1  LIG1       -0.3579
     11 H          -1.4474   -1.0131   -0.4708 H       1  LIG1        0.1423
     12 H          -0.0133   -1.7941   -0.4709 H       1  LIG1        0.1423
     13 S           2.1896    3.5589   -0.0012 S.3     1  LIG1       -0.1420
     14 H           1.3580    4.5712   -0.0013 H       1  LIG1        0.1071
     15 C           4.1518   -0.0586    0.0215 C.ar    1  LIG1        0.0325
     16 C           5.5600   -0.0449    0.0220 C.ar    1  LIG1       -0.0394
     17 C           3.4843    1.1831   -0.0005 C.ar    1  LIG1        0.0049
     18 C           6.2742    1.1510    0.0009 C.ar    1  LIG1       -0.0468
     19 H           6.0951   -0.9918    0.0390 H       1  LIG1        0.0636
     20 C           4.1968    2.3773   -0.0216 C.ar    1  LIG1       -0.0390
     21 C           5.5955    2.3701   -0.0212 C.ar    1  LIG1        0.0054
     22 H           3.6591    3.3219   -0.0383 H       1  LIG1        0.0635
     23 H           7.5740    1.1267    0.0018 H       1  LIG1        0.0629
     24 N           3.5412   -1.2061    0.0416 N.pl3   1  LIG1       -0.3575
     25 H           2.6604   -1.1231   -0.4246 H       1  LIG1        0.1423
     26 H           4.1019   -1.8903   -0.4247 H       1  LIG1        0.1423
     27 S           6.2561    3.4895   -0.0408 S.3     1  LIG1       -0.1426
     28 H           5.4148    4.4936   -0.0474 H       1  LIG1        0.1071
@<TRIPOS>BOND
     1    12    10    1
     2    11    10    1
     3    26    24    1
     4    25    24    1
     5    28    27    1
     6    27    21    1
     7    22    20    1
     8    20    21   ar
     9    20    17   ar
    10    21    18   ar
    11    14    13    1
    12    13     7    1
    13     7     6   ar
    14     7     4   ar
    15    17     4    1
    16    17    15   ar
    17     6     8    1
    18     6     3   ar
    19     4     2   ar
    20     1     3   ar
    21     1     2   ar
    22     1    10    1
    23     3     9    1
    24     2     5    1
    25    18    23    1
    26    18    16   ar
    27    15    16   ar
    28    15    24    1
    29    16    19    1
