@<TRIPOS>MOLECULE
mol_data/noopt/geoms/mol2/4hg4hg-4hg-4hg.out
 54 57 0 0 0
SMALL
GASTEIGER

@<TRIPOS>ATOM
      1 C           0.0509    0.0309    0.0002 C.ar    1  LIG1        0.0252
      2 C           1.4592    0.0309    0.0002 C.ar    1  LIG1       -0.0322
      3 C          -0.6045    1.2792    0.0002 C.ar    1  LIG1       -0.0400
      4 C           2.1849    1.2200   -0.0004 C.ar    1  LIG1       -0.0012
      5 H           1.9850   -0.9213    0.0004 H       1  LIG1        0.0642
      6 C           0.1195    2.4666   -0.0004 C.ar    1  LIG1       -0.0462
      7 C           1.5181    2.4458   -0.0008 C.ar    1  LIG1        0.0126
      8 H          -0.4090    3.4165   -0.0003 H       1  LIG1        0.0629
      9 H          -1.9035    1.3287    0.0016 H       1  LIG1        0.0636
     10 N          -0.5709   -1.1108    0.0005 N.pl3   1  LIG1       -0.3579
     11 H          -1.4474   -1.0131   -0.4708 H       1  LIG1        0.1423
     12 H          -0.0133   -1.7941   -0.4709 H       1  LIG1        0.1423
     13 S           2.1896    3.5589   -0.0012 S.3     1  LIG1       -0.1420
     14 H           1.3580    4.5712   -0.0013 H       1  LIG1        0.1071
     15 C           4.1518   -0.0586    0.0215 C.ar    1  LIG1        0.0330
     16 C           5.5600   -0.0449    0.0220 C.ar    1  LIG1       -0.0316
     17 C           3.4843    1.1831   -0.0005 C.ar    1  LIG1        0.0049
     18 C           6.2742    1.1510    0.0009 C.ar    1  LIG1       -0.0012
     19 H           6.0951   -0.9918    0.0390 H       1  LIG1        0.0642
     20 C           4.1968    2.3773   -0.0216 C.ar    1  LIG1       -0.0385
     21 C           5.5955    2.3701   -0.0212 C.ar    1  LIG1        0.0132
     22 H           3.6591    3.3219   -0.0383 H       1  LIG1        0.0635
     23 N           3.5412   -1.2061    0.0416 N.pl3   1  LIG1       -0.3575
     24 H           2.6604   -1.1231   -0.4246 H       1  LIG1        0.1423
     25 H           4.1019   -1.8903   -0.4247 H       1  LIG1        0.1423
     26 S           6.2561    3.4895   -0.0408 S.3     1  LIG1       -0.1420
     27 H           5.4148    4.4936   -0.0474 H       1  LIG1        0.1071
     28 C           8.2534   -0.1084    0.0245 C.ar    1  LIG1        0.0330
     29 C           9.6614   -0.0811    0.0261 C.ar    1  LIG1       -0.0316
     30 C           7.5739    1.1267    0.0018 C.ar    1  LIG1        0.0049
     31 C          10.3639    1.1217    0.0055 C.ar    1  LIG1       -0.0012
     32 H          10.2056   -1.0227    0.0436 H       1  LIG1        0.0642
     33 C           8.2747    2.3278   -0.0187 C.ar    1  LIG1       -0.0385
     34 C           9.6734    2.3341   -0.0171 C.ar    1  LIG1        0.0132
     35 H           7.7279    3.2671   -0.0358 H       1  LIG1        0.0635
     36 N           7.6539   -1.2618    0.0440 N.pl3   1  LIG1       -0.3575
     37 H           6.7724   -1.1872   -0.4223 H       1  LIG1        0.1423
     38 H           8.2214   -1.9404   -0.4223 H       1  LIG1        0.1423
     39 S          10.3232    3.4599   -0.0362 S.3     1  LIG1       -0.1420
     40 H           9.4722    4.4559   -0.0426 H       1  LIG1        0.1071
     41 C          12.3553   -0.1186    0.0095 C.ar    1  LIG1        0.0325
     42 C          13.7630   -0.0776    0.0132 C.ar    1  LIG1       -0.0394
     43 C          11.6638    1.1101    0.0076 C.ar    1  LIG1        0.0049
     44 C          14.4537    1.1322    0.0144 C.ar    1  LIG1       -0.0468
     45 H          14.3163   -1.0141    0.0149 H       1  LIG1        0.0636
     46 C          12.3529    2.3181    0.0088 C.ar    1  LIG1       -0.0390
     47 C          13.7515    2.3380    0.0121 C.ar    1  LIG1        0.0054
     48 H          11.7970    3.2522    0.0074 H       1  LIG1        0.0635
     49 H          15.7537    1.1331    0.0178 H       1  LIG1        0.0629
     50 N          11.7670   -1.2779    0.0082 N.pl3   1  LIG1       -0.3575
     51 H          10.8883   -1.2053   -0.4635 H       1  LIG1        0.1423
     52 H          12.3445   -1.9442   -0.4635 H       1  LIG1        0.1423
     53 S          14.3902    3.4702    0.0134 S.3     1  LIG1       -0.1426
     54 H          13.5296    4.4578    0.0138 H       1  LIG1        0.1071
@<TRIPOS>BOND
     1    12    10    1
     2    11    10    1
     3    52    50    1
     4    51    50    1
     5    25    23    1
     6    24    23    1
     7    38    36    1
     8    37    36    1
     9    27    26    1
    10    40    39    1
    11    26    21    1
    12    22    20    1
    13    39    34    1
    14    35    33    1
    15    20    21   ar
    16    20    17   ar
    17    21    18   ar
    18    33    34   ar
    19    33    30   ar
    20    34    31   ar
    21    14    13    1
    22    13     7    1
    23     7     6   ar
    24     7     4   ar
    25    17     4    1
    26    17    15   ar
    27     6     8    1
    28     6     3   ar
    29     4     2   ar
    30     2     1   ar
    31     2     5    1
    32     3     1   ar
    33     3     9    1
    34     1    10    1
    35    18    30    1
    36    18    16   ar
    37    30    28   ar
    38    31    43    1
    39    31    29   ar
    40    48    46    1
    41    43    46   ar
    42    43    41   ar
    43    50    41    1
    44    46    47   ar
    45    41    42   ar
    46    47    53    1
    47    47    44   ar
    48    42    44   ar
    49    42    45    1
    50    53    54    1
    51    44    49    1
    52    15    16   ar
    53    15    23    1
    54    16    19    1
    55    28    29   ar
    56    28    36    1
    57    29    32    1
