@<TRIPOS>MOLECULE
mol_data/noopt/geoms/mol2/4hh12hl-6ld4fh4af6eh-12ih-12ha-.out
 101 108 0 0 0
SMALL
GASTEIGER

@<TRIPOS>ATOM
      1 C           0.0509    0.0309    0.0002 C.ar    1  LIG1        0.0253
      2 C           1.4592    0.0309    0.0002 C.ar    1  LIG1       -0.0285
      3 C          -0.6045    1.2792    0.0002 C.ar    1  LIG1       -0.0393
      4 C           2.1849    1.2200   -0.0004 C.ar    1  LIG1        0.0416
      5 H           1.9850   -0.9213    0.0004 H       1  LIG1        0.0644
      6 C           0.1195    2.4666   -0.0004 C.ar    1  LIG1       -0.0386
      7 C           1.5181    2.4458   -0.0008 C.ar    1  LIG1        0.0355
      8 H          -0.4090    3.4165   -0.0003 H       1  LIG1        0.0637
      9 H          -1.9035    1.3287    0.0016 H       1  LIG1        0.0636
     10 N          -0.5709   -1.1108    0.0005 N.pl3   1  LIG1       -0.3579
     11 H          -1.4474   -1.0131   -0.4708 H       1  LIG1        0.1423
     12 H          -0.0133   -1.7941   -0.4709 H       1  LIG1        0.1423
     13 N           2.1896    3.5590   -0.0012 N.pl3   1  LIG1       -0.3574
     14 H           3.0608    3.4225   -0.4727 H       1  LIG1        0.1423
     15 H           1.6626    4.2660   -0.4727 H       1  LIG1        0.1423
     16 C           3.4844    1.1831   -0.0005 C.ar    1  LIG1        0.1618
     17 C           4.4399    0.1882    0.0142 C.ar    1  LIG1        0.1140
     18 C           5.7279    0.8500    0.0034 C.ar    1  LIG1        0.1872
     19 C           5.4738    2.2059   -0.0172 C.ar    1  LIG1        0.1841
     20 O           4.0977    2.4365   -0.0202 O.2     1  LIG1       -0.4489
     21 N           4.2495   -1.0976    0.0341 N.pl3   1  LIG1       -0.3522
     22 H           3.3920   -1.3148   -0.4322 H       1  LIG1        0.1425
     23 H           5.0073   -1.5540   -0.4322 H       1  LIG1        0.1425
     24 O           6.8846    0.2566    0.0119 O.3     1  LIG1       -0.4896
     25 C           6.6941   -1.1606    0.0150 C.3     1  LIG1        0.0791
     26 H           7.6463   -1.6485    0.0218 H       1  LIG1        0.0660
     27 H           6.1417   -1.4444    0.8864 H       1  LIG1        0.0660
     28 H           6.1516   -1.4494   -0.8609 H       1  LIG1        0.0660
     29 C           5.5901    4.5520   -0.0431 C.ar    1  LIG1        0.2262
     30 C           6.1999    3.2842   -0.0341 C.ar    1  LIG1        0.0837
     31 C           7.5942    3.2149   -0.0433 C.ar    1  LIG1       -0.0263
     32 C           8.3259    4.4035   -0.0612 C.ar    1  LIG1        0.0787
     33 C           7.6251    5.6235   -0.0693 C.ar    1  LIG1        0.0957
     34 N           6.2805    5.7087   -0.0605 N.ar    1  LIG1       -0.2109
     35 H           8.1061    2.2422   -0.0376 H       1  LIG1        0.0640
     36 O           4.2952    4.6679   -0.0351 O.3     1  LIG1       -0.4792
     37 C           3.9400    6.0531   -0.0322 C.3     1  LIG1        0.0804
     38 H           2.8743    6.1480   -0.0257 H       1  LIG1        0.0660
     39 H           4.3453    6.5234    0.8394 H       1  LIG1        0.0660
     40 H           4.3347    6.5244   -0.9079 H       1  LIG1        0.0660
     41 N          10.7724    4.3826   -0.0788 N.1     1  LIG1       -0.1908
     42 C           9.6258    4.3924   -0.0706 C.1     1  LIG1        0.1013
     43 C           9.6717    6.7702   -0.0941 C.ar    1  LIG1        0.1267
     44 C          10.3143    8.0232   -0.1106 C.ar    1  LIG1       -0.0101
     45 C           8.2619    6.7567   -0.0859 C.ar    1  LIG1        0.0449
     46 C           9.5874    9.2115   -0.1191 C.ar    1  LIG1        0.0064
     47 H          11.4015    8.0565   -0.1170 H       1  LIG1        0.0661
     48 C           7.5357    7.9427   -0.0945 C.ar    1  LIG1       -0.0277
     49 C           8.1924    9.1776   -0.1112 C.ar    1  LIG1        0.0332
     50 H           6.4493    7.9060   -0.0878 H       1  LIG1        0.0644
     51 O          10.4039    5.6959   -0.0871 O.3     1  LIG1       -0.5061
     52 H          11.3321    5.9409   -0.0853 H       1  LIG1        0.2922
     53 N           7.5083   10.2830   -0.1189 N.pl3   1  LIG1       -0.3575
     54 H           8.0287   10.9937   -0.5923 H       1  LIG1        0.1423
     55 H           6.6401   10.1344   -0.5924 H       1  LIG1        0.1423
     56 C          11.6227   10.3780   -0.1419 C.ar    1  LIG1       -0.0532
     57 C          12.2532   11.6372   -0.1570 C.ar    1  LIG1       -0.0499
     58 C          10.2131   10.3508   -0.1344 C.ar    1  LIG1       -0.0125
     59 C          11.5148   12.8184   -0.1648 C.ar    1  LIG1        0.0263
     60 H          13.3400   11.6811   -0.1628 H       1  LIG1        0.0625
     61 C           9.4755   11.5298   -0.1423 C.ar    1  LIG1       -0.0118
     62 C          10.1202   12.7710   -0.1576 C.ar    1  LIG1        0.1252
     63 H           8.3895   11.4825   -0.1361 H       1  LIG1        0.0660
     64 H          12.3653    9.3110   -0.1355 H       1  LIG1        0.0624
     65 O           9.4254   13.8698   -0.1647 O.3     1  LIG1       -0.5061
     66 H           8.4893   13.6569   -0.1665 H       1  LIG1        0.2922
     67 C          11.3962   15.1642   -0.2075 C.ar    1  LIG1        0.1218
     68 C          12.1295   13.9638   -0.1788 C.ar    1  LIG1        0.0212
     69 C          13.5237   14.0345   -0.1656 C.ar    1  LIG1       -0.0284
     70 C          14.1331   15.2903   -0.1815 C.ar    1  LIG1        0.0546
     71 C          13.3140   16.4338   -0.2102 C.ar    1  LIG1        0.1282
     72 N          11.9676   16.3840   -0.2231 N.ar    1  LIG1       -0.2328
     73 H          14.1302   13.1179   -0.1442 H       1  LIG1        0.0644
     74 C          10.0963   15.1499   -0.2206 C.1     1  LIG1       -0.0492
     75 C           8.8952   15.1367   -0.2328 C.1     1  LIG1       -0.1124
     76 H           7.8254   15.1249   -0.2436 H       1  LIG1        0.1232
     77 N          15.4276   15.4093   -0.1703 N.pl3   1  LIG1       -0.3562
     78 H          15.8383   14.6271   -0.6389 H       1  LIG1        0.1424
     79 H          15.6888   16.2532   -0.6389 H       1  LIG1        0.1424
     80 C          13.8344   17.6250   -0.2258 C.ar    1  LIG1        0.1605
     81 C          15.1147   18.1387   -0.2376 C.ar    1  LIG1        0.0183
     82 C          14.9829   19.5807   -0.2528 C.ar    1  LIG1        0.0777
     83 C          13.6302   19.8526   -0.2494 C.ar    1  LIG1        0.1932
     84 O          12.9014   18.6629   -0.2329 O.2     1  LIG1       -0.4479
     85 C          16.2362   17.4808   -0.2356 C.3     1  LIG1       -0.0343
     86 H          16.9853   18.0543    0.2693 H       1  LIG1        0.0279
     87 H          16.5452   17.2996   -1.2440 H       1  LIG1        0.0279
     88 H          16.1012   16.5471    0.2692 H       1  LIG1        0.0279
     89 N          15.9659   20.4312   -0.2668 N.pl3   1  LIG1       -0.3547
     90 H          16.7484   20.0285   -0.7418 H       1  LIG1        0.1424
     91 H          15.6799   21.2634   -0.7419 H       1  LIG1        0.1424
     92 C          12.9019   20.9293   -0.2577 C.ar    1  LIG1        0.1920
     93 C          13.1521   22.2859   -0.2492 C.ar    1  LIG1        0.0741
     94 C          11.8631   22.9456   -0.2680 C.ar    1  LIG1       -0.0024
     95 C          10.9103   21.9479   -0.2869 C.ar    1  LIG1        0.0946
     96 O          11.5261   20.6959   -0.2810 O.2     1  LIG1       -0.4579
     97 H           9.6111   21.9082   -0.3081 H       1  LIG1        0.1030
     98 N          14.3073   22.8818   -0.2284 N.pl3   1  LIG1       -0.3550
     99 H          14.9845   22.3124   -0.6944 H       1  LIG1        0.1424
    100 H          14.2359   23.7637   -0.6944 H       1  LIG1        0.1424
    101 H          11.6699   24.2312   -0.2670 H       1  LIG1        0.0668
@<TRIPOS>BOND
     1    87    85    1
     2    40    37    1
     3    28    25    1
     4    91    89    1
     5    90    89    1
     6   100    98    1
     7    99    98    1
     8    79    77    1
     9    78    77    1
    10    55    53    1
    11    54    53    1
    12    15    13    1
    13    14    13    1
    14    12    10    1
    15    11    10    1
    16    23    21    1
    17    22    21    1
    18    97    95    1
    19    95    96   ar
    20    95    94   ar
    21    96    92   ar
    22    94   101    1
    23    94    93   ar
    24    89    82    1
    25    92    83    1
    26    92    93   ar
    27    82    83   ar
    28    82    81   ar
    29    83    84   ar
    30    93    98    1
    31    76    75    1
    32    81    85    1
    33    81    80   ar
    34    85    88    1
    35    85    86    1
    36    84    80   ar
    37    75    74    3
    38    80    71    1
    39    72    71   ar
    40    72    67   ar
    41    74    67    1
    42    71    70   ar
    43    67    68   ar
    44    70    77    1
    45    70    69   ar
    46    68    69   ar
    47    68    59    1
    48    66    65    1
    49    69    73    1
    50    59    62   ar
    51    59    57   ar
    52    65    62    1
    53    60    57    1
    54    62    61   ar
    55    57    56   ar
    56    61    63    1
    57    61    58   ar
    58    56    64    1
    59    56    58   ar
    60    58    46    1
    61    46    49   ar
    62    46    44   ar
    63    53    49    1
    64    47    44    1
    65    49    48   ar
    66    44    43   ar
    67    48    50    1
    68    48    45   ar
    69    43    51    1
    70    43    45   ar
    71    51    52    1
    72    45    33    1
    73    41    42    3
    74    42    32    1
    75    33    32   ar
    76    33    34   ar
    77    32    31   ar
    78    34    29   ar
    79    31    35    1
    80    31    30   ar
    81    29    36    1
    82    29    30   ar
    83    36    37    1
    84    30    19    1
    85    37    38    1
    86    37    39    1
    87    20    19   ar
    88    20    16   ar
    89    19    18   ar
    90    13     7    1
    91     7     4   ar
    92     7     6   ar
    93    16     4    1
    94    16    17   ar
    95     4     2   ar
    96     6     8    1
    97     6     3   ar
    98     3     1   ar
    99     3     9    1
   100     2     1   ar
   101     2     5    1
   102     1    10    1
   103    18    24    1
   104    18    17   ar
   105    24    25    1
   106    17    21    1
   107    25    26    1
   108    25    27    1
