@<TRIPOS>MOLECULE
mol_data/noopt/geoms/mol2/4hh12fh13dd-6if.out
 49 52 0 0 0
SMALL
GASTEIGER

@<TRIPOS>ATOM
      1 C           0.0509    0.0309    0.0002 C.ar    1  LIG1        0.0253
      2 C           1.4592    0.0309    0.0002 C.ar    1  LIG1       -0.0285
      3 C          -0.6045    1.2792    0.0002 C.ar    1  LIG1       -0.0393
      4 C           2.1849    1.2200   -0.0004 C.ar    1  LIG1        0.0433
      5 H           1.9850   -0.9213    0.0004 H       1  LIG1        0.0644
      6 C           0.1195    2.4666   -0.0004 C.ar    1  LIG1       -0.0386
      7 C           1.5181    2.4458   -0.0008 C.ar    1  LIG1        0.0356
      8 H          -0.4090    3.4165   -0.0003 H       1  LIG1        0.0637
      9 H          -1.9035    1.3287    0.0016 H       1  LIG1        0.0636
     10 N          -0.5709   -1.1108    0.0005 N.pl3   1  LIG1       -0.3579
     11 H          -1.4474   -1.0131   -0.4708 H       1  LIG1        0.1423
     12 H          -0.0133   -1.7941   -0.4709 H       1  LIG1        0.1423
     13 N           2.1896    3.5590   -0.0012 N.pl3   1  LIG1       -0.3574
     14 H           3.0608    3.4225   -0.4727 H       1  LIG1        0.1423
     15 H           1.6626    4.2660   -0.4727 H       1  LIG1        0.1423
     16 C           3.4844    1.1831   -0.0005 C.ar    1  LIG1        0.1807
     17 C           4.4399    0.1881   -0.0006 C.ar    1  LIG1        0.1846
     18 C           5.7279    0.8499   -0.0007 C.ar    1  LIG1        0.1153
     19 C           5.4738    2.2061   -0.0008 C.ar    1  LIG1        0.1773
     20 O           4.0977    2.4367   -0.0007 O.2     1  LIG1       -0.4476
     21 O           4.2495   -1.0979   -0.0005 O.3     1  LIG1       -0.5020
     22 H           5.0978   -1.5474   -0.0004 H       1  LIG1        0.2924
     23 N           6.8846    0.2566   -0.0008 N.pl3   1  LIG1       -0.3521
     24 H           6.8084   -0.6220   -0.4722 H       1  LIG1        0.1425
     25 H           7.5538    0.8309   -0.4722 H       1  LIG1        0.1425
     26 C           6.1999    3.2844   -0.0008 C.ar    1  LIG1        0.1034
     27 C           7.5505    3.4383   -0.0012 C.ar    1  LIG1        0.0980
     28 C           7.8208    4.8446    0.0001 C.ar    1  LIG1        0.0951
     29 C           6.6234    5.4882   -0.0006 C.ar    1  LIG1        0.0677
     30 N           5.6283    4.5368   -0.0007 N.ar    1  LIG1       -0.3496
     31 H           4.6522    4.7244   -0.0012 H       1  LIG1        0.1661
     32 N           9.2085    1.6392   -0.0010 N.1     1  LIG1       -0.1908
     33 C           8.4315    2.4823   -0.0011 C.1     1  LIG1        0.1027
     34 N          10.0275    5.9011    0.0021 N.1     1  LIG1       -0.1908
     35 C           8.9933    5.4059    0.0011 C.1     1  LIG1        0.1026
     36 C           5.0119    7.1975    0.0004 C.ar    1  LIG1        0.0476
     37 C           6.3487    6.7589   -0.0001 C.ar    1  LIG1        0.0241
     38 C           7.3646    7.7165    0.0004 C.ar    1  LIG1       -0.0078
     39 C           7.0143    9.0677    0.0010 C.ar    1  LIG1        0.1355
     40 C           5.6490    9.4075    0.0012 C.ar    1  LIG1        0.0693
     41 N           4.6560    8.4968    0.0010 N.ar    1  LIG1       -0.2559
     42 H           8.4207    7.4118   -0.0010 H       1  LIG1        0.0662
     43 H           5.2728   10.6519    0.0019 H       1  LIG1        0.0867
     44 C           4.0311    6.3437    0.0001 C.3     1  LIG1       -0.0217
     45 H           4.3356    5.4505    0.5044 H       1  LIG1        0.0293
     46 H           3.7623    6.1096   -1.0089 H       1  LIG1        0.0293
     47 H           3.1884    6.7685    0.5043 H       1  LIG1        0.0293
     48 O           7.9229    9.9976    0.0013 O.3     1  LIG1       -0.5052
     49 H           7.4995   10.8592    0.0013 H       1  LIG1        0.2922
@<TRIPOS>BOND
     1    46    44    1
     2    15    13    1
     3    14    13    1
     4    25    23    1
     5    24    23    1
     6    12    10    1
     7    11    10    1
     8    27    33    1
     9    27    26   ar
    10    27    28   ar
    11    13     7    1
    12    31    30    1
    13    33    32    3
    14    42    38    1
    15    26    19    1
    16    26    30   ar
    17     7     6   ar
    18     7     4   ar
    19    23    18    1
    20    19    20   ar
    21    19    18   ar
    22    20    16   ar
    23    18    17   ar
    24    30    29   ar
    25    29    37    1
    26    29    28   ar
    27    17    16   ar
    28    17    21    1
    29    16     4    1
    30    21    22    1
    31     6     8    1
    32     6     3   ar
    33     4     2   ar
    34    37    36   ar
    35    37    38   ar
    36    28    35    1
    37    44    36    1
    38    44    47    1
    39    44    45    1
    40     1     2   ar
    41     1     3   ar
    42     1    10    1
    43     2     5    1
    44     3     9    1
    45    36    41   ar
    46    38    39   ar
    47    41    40   ar
    48    39    40   ar
    49    39    48    1
    50    35    34    3
    51    40    43    1
    52    48    49    1
