@<TRIPOS>MOLECULE
mol_data/noopt/geoms/mol2/4hh12il-13ai13hl.out
 55 58 0 0 0
SMALL
GASTEIGER

@<TRIPOS>ATOM
      1 C           0.0509    0.0309    0.0002 C.ar    1  LIG1        0.0253
      2 C           1.4592    0.0309    0.0002 C.ar    1  LIG1       -0.0286
      3 C          -0.6045    1.2792    0.0002 C.ar    1  LIG1       -0.0393
      4 C           2.1849    1.2200   -0.0004 C.ar    1  LIG1        0.0400
      5 H           1.9850   -0.9213    0.0004 H       1  LIG1        0.0644
      6 C           0.1195    2.4666   -0.0004 C.ar    1  LIG1       -0.0386
      7 C           1.5181    2.4458   -0.0008 C.ar    1  LIG1        0.0354
      8 H          -0.4090    3.4165   -0.0003 H       1  LIG1        0.0637
      9 H          -1.9035    1.3287    0.0016 H       1  LIG1        0.0636
     10 N          -0.5709   -1.1108    0.0005 N.pl3   1  LIG1       -0.3579
     11 H          -1.4474   -1.0131   -0.4708 H       1  LIG1        0.1423
     12 H          -0.0133   -1.7941   -0.4709 H       1  LIG1        0.1423
     13 N           2.1896    3.5590   -0.0012 N.pl3   1  LIG1       -0.3574
     14 H           3.0608    3.4225   -0.4727 H       1  LIG1        0.1423
     15 H           1.6626    4.2660   -0.4727 H       1  LIG1        0.1423
     16 C           3.4844    1.1831   -0.0005 C.ar    1  LIG1        0.1441
     17 C           4.4399    0.1882    0.0142 C.ar    1  LIG1        0.0377
     18 C           5.7279    0.8500    0.0034 C.ar    1  LIG1        0.1706
     19 C           5.4738    2.2059   -0.0172 C.ar    1  LIG1        0.1934
     20 O           4.0977    2.4365   -0.0202 O.2     1  LIG1       -0.4492
     21 C           4.2495   -1.0979    0.0341 C.3     1  LIG1       -0.0326
     22 H           5.0626   -1.5710    0.5439 H       1  LIG1        0.0280
     23 H           4.1951   -1.4660   -0.9692 H       1  LIG1        0.0280
     24 H           3.3341   -1.3151    0.5438 H       1  LIG1        0.0280
     25 O           6.8846    0.2566    0.0119 O.3     1  LIG1       -0.4910
     26 C           6.6941   -1.1606    0.0150 C.3     1  LIG1        0.0790
     27 H           7.6463   -1.6485    0.0218 H       1  LIG1        0.0660
     28 H           6.1417   -1.4444    0.8864 H       1  LIG1        0.0660
     29 H           6.1516   -1.4494   -0.8609 H       1  LIG1        0.0660
     30 C           6.1999    3.2842   -0.0341 C.ar    1  LIG1        0.0865
     31 C           7.5505    3.4382   -0.0293 C.ar    1  LIG1       -0.0297
     32 C           7.8207    4.8442   -0.0541 C.ar    1  LIG1       -0.0230
     33 C           6.6234    5.4876   -0.0747 C.ar    1  LIG1        0.0683
     34 N           5.6284    4.5363   -0.0621 N.ar    1  LIG1       -0.3503
     35 H           4.6522    4.7237   -0.0723 H       1  LIG1        0.1660
     36 H           8.4315    2.4825   -0.0050 H       1  LIG1        0.0643
     37 C           8.9935    5.4058   -0.0569 C.3     1  LIG1       -0.0376
     38 H           8.9389    6.3482    0.4468 H       1  LIG1        0.0278
     39 H           9.3133    5.5589   -1.0665 H       1  LIG1        0.0278
     40 H           9.6935    4.7722    0.4467 H       1  LIG1        0.0278
     41 C           6.3487    6.7580   -0.1009 C.ar    1  LIG1        0.0877
     42 C           7.1735    7.8384   -0.1190 C.ar    1  LIG1        0.0939
     43 C           6.3466    9.0073   -0.1442 C.ar    1  LIG1        0.1585
     44 C           5.0529    8.5897   -0.1421 C.ar    1  LIG1        0.0463
     45 N           5.0496    7.2133   -0.1152 N.ar    1  LIG1       -0.3550
     46 H           4.2381    6.6394   -0.1079 H       1  LIG1        0.1655
     47 H           3.9463    9.2717   -0.1597 H       1  LIG1        0.0845
     48 N           8.4732    7.8116   -0.1128 N.pl3   1  LIG1       -0.3535
     49 H           8.7918    6.9883   -0.5827 H       1  LIG1        0.1425
     50 H           8.8256    8.6209   -0.5827 H       1  LIG1        0.1425
     51 O           6.7541   10.2416   -0.1656 O.3     1  LIG1       -0.4918
     52 C           8.1838   10.2722   -0.1736 C.3     1  LIG1        0.0789
     53 H           8.5188   11.2882   -0.1914 H       1  LIG1        0.0660
     54 H           8.5558    9.7894    0.7059 H       1  LIG1        0.0660
     55 H           8.5467    9.7618   -1.0411 H       1  LIG1        0.0660
@<TRIPOS>BOND
     1    39    37    1
     2    55    52    1
     3    23    21    1
     4    29    26    1
     5    50    48    1
     6    49    48    1
     7    15    13    1
     8    14    13    1
     9    12    10    1
    10    11    10    1
    11    53    52    1
    12    52    51    1
    13    52    54    1
    14    51    43    1
    15    47    44    1
    16    43    44   ar
    17    43    42   ar
    18    44    45   ar
    19    42    48    1
    20    42    41   ar
    21    45    46    1
    22    45    41   ar
    23    41    33    1
    24    33    34   ar
    25    33    32   ar
    26    35    34    1
    27    34    30   ar
    28    37    32    1
    29    37    40    1
    30    37    38    1
    31    32    31   ar
    32    30    31   ar
    33    30    19    1
    34    31    36    1
    35    20    19   ar
    36    20    16   ar
    37    19    18   ar
    38    13     7    1
    39     7     6   ar
    40     7     4   ar
    41    16     4    1
    42    16    17   ar
    43     6     8    1
    44     6     3   ar
    45     4     2   ar
    46     1     2   ar
    47     1     3   ar
    48     1    10    1
    49     2     5    1
    50     3     9    1
    51    18    25    1
    52    18    17   ar
    53    25    26    1
    54    17    21    1
    55    26    27    1
    56    26    28    1
    57    21    24    1
    58    21    22    1
