@<TRIPOS>MOLECULE
mol_data/noopt/geoms/mol2/4hh4hh4hh.out
 44 46 0 0 0
SMALL
GASTEIGER

@<TRIPOS>ATOM
      1 C           0.0509    0.0309    0.0002 C.ar    1  LIG1        0.0252
      2 C           1.4592    0.0309    0.0002 C.ar    1  LIG1       -0.0315
      3 C          -0.6045    1.2792    0.0002 C.ar    1  LIG1       -0.0393
      4 C           2.1849    1.2200   -0.0004 C.ar    1  LIG1        0.0063
      5 H           1.9850   -0.9213    0.0004 H       1  LIG1        0.0643
      6 C           0.1195    2.4666   -0.0004 C.ar    1  LIG1       -0.0387
      7 C           1.5181    2.4458   -0.0008 C.ar    1  LIG1        0.0325
      8 H          -0.4090    3.4165   -0.0003 H       1  LIG1        0.0637
      9 H          -1.9035    1.3287    0.0016 H       1  LIG1        0.0636
     10 N          -0.5709   -1.1108    0.0005 N.pl3   1  LIG1       -0.3579
     11 H          -1.4474   -1.0131   -0.4708 H       1  LIG1        0.1423
     12 H          -0.0133   -1.7941   -0.4709 H       1  LIG1        0.1423
     13 N           2.1896    3.5590   -0.0012 N.pl3   1  LIG1       -0.3575
     14 H           3.0608    3.4225   -0.4727 H       1  LIG1        0.1423
     15 H           1.6626    4.2660   -0.4727 H       1  LIG1        0.1423
     16 C           4.1518   -0.0588    0.0002 C.ar    1  LIG1        0.0331
     17 C           5.5600   -0.0451    0.0016 C.ar    1  LIG1       -0.0309
     18 C           3.4843    1.1831   -0.0005 C.ar    1  LIG1        0.0063
     19 C           6.2742    1.1510    0.0017 C.ar    1  LIG1        0.0063
     20 H           6.0950   -0.9922    0.0024 H       1  LIG1        0.0643
     21 C           4.1968    2.3775   -0.0004 C.ar    1  LIG1       -0.0309
     22 C           5.5955    2.3702    0.0006 C.ar    1  LIG1        0.0331
     23 H           3.6591    3.3222   -0.0009 H       1  LIG1        0.0643
     24 N           3.5411   -1.2065   -0.0001 N.pl3   1  LIG1       -0.3575
     25 H           2.6638   -1.1171   -0.4716 H       1  LIG1        0.1423
     26 H           4.1054   -1.8841   -0.4716 H       1  LIG1        0.1423
     27 N           6.2562    3.4899    0.0008 N.pl3   1  LIG1       -0.3575
     28 H           7.1288    3.3621   -0.4705 H       1  LIG1        0.1423
     29 H           5.7224    4.1919   -0.4706 H       1  LIG1        0.1423
     30 C           8.2534   -0.1087    0.0043 C.ar    1  LIG1        0.0325
     31 C           9.6614   -0.0814    0.0071 C.ar    1  LIG1       -0.0387
     32 C           7.5739    1.1267    0.0029 C.ar    1  LIG1        0.0063
     33 C          10.3639    1.1216    0.0079 C.ar    1  LIG1       -0.0393
     34 H          10.2056   -1.0232    0.0084 H       1  LIG1        0.0637
     35 C           8.2747    2.3279    0.0036 C.ar    1  LIG1       -0.0315
     36 C           9.6734    2.3342    0.0060 C.ar    1  LIG1        0.0252
     37 H           7.7279    3.2674    0.0026 H       1  LIG1        0.0643
     38 H          11.6639    1.1099    0.0104 H       1  LIG1        0.0636
     39 N           7.6539   -1.2622    0.0034 N.pl3   1  LIG1       -0.3575
     40 H           6.7758   -1.1812   -0.4682 H       1  LIG1        0.1423
     41 H           8.2248   -1.9342   -0.4682 H       1  LIG1        0.1423
     42 N          10.3232    3.4602    0.0069 N.pl3   1  LIG1       -0.3579
     43 H          11.1972    3.3411   -0.4643 H       1  LIG1        0.1423
     44 H           9.7828    4.1573   -0.4643 H       1  LIG1        0.1423
@<TRIPOS>BOND
     1    15    13    1
     2    14    13    1
     3    26    24    1
     4    25    24    1
     5    12    10    1
     6    11    10    1
     7    29    27    1
     8    28    27    1
     9    41    39    1
    10    40    39    1
    11    44    42    1
    12    43    42    1
    13    13     7    1
    14    23    21    1
    15     7     4   ar
    16     7     6   ar
    17    18    21   ar
    18    18     4    1
    19    18    16   ar
    20    21    22   ar
    21     4     2   ar
    22     6     8    1
    23     6     3   ar
    24    24    16    1
    25     2     1   ar
    26     2     5    1
    27     3     1   ar
    28     3     9    1
    29     1    10    1
    30    16    17   ar
    31    22    27    1
    32    22    19   ar
    33    17    19   ar
    34    17    20    1
    35    19    32    1
    36    37    35    1
    37    32    35   ar
    38    32    30   ar
    39    39    30    1
    40    35    36   ar
    41    30    31   ar
    42    36    42    1
    43    36    33   ar
    44    31    33   ar
    45    31    34    1
    46    33    38    1
