@<TRIPOS>MOLECULE
mol_data/noopt/geoms/mol2/4hh4hh.out
 30 31 0 0 0
SMALL
GASTEIGER

@<TRIPOS>ATOM
      1 C           0.0509    0.0309    0.0002 C.ar    1  LIG1        0.0252
      2 C           1.4592    0.0309    0.0002 C.ar    1  LIG1       -0.0315
      3 C          -0.6045    1.2792    0.0002 C.ar    1  LIG1       -0.0393
      4 C           2.1849    1.2200   -0.0004 C.ar    1  LIG1        0.0063
      5 H           1.9850   -0.9213    0.0004 H       1  LIG1        0.0643
      6 C           0.1195    2.4666   -0.0004 C.ar    1  LIG1       -0.0387
      7 C           1.5181    2.4458   -0.0008 C.ar    1  LIG1        0.0325
      8 H          -0.4090    3.4165   -0.0003 H       1  LIG1        0.0637
      9 H          -1.9035    1.3287    0.0016 H       1  LIG1        0.0636
     10 N          -0.5709   -1.1108    0.0005 N.pl3   1  LIG1       -0.3579
     11 H          -1.4474   -1.0131   -0.4708 H       1  LIG1        0.1423
     12 H          -0.0133   -1.7941   -0.4709 H       1  LIG1        0.1423
     13 N           2.1896    3.5590   -0.0012 N.pl3   1  LIG1       -0.3575
     14 H           3.0608    3.4225   -0.4727 H       1  LIG1        0.1423
     15 H           1.6626    4.2660   -0.4727 H       1  LIG1        0.1423
     16 C           4.1518   -0.0588    0.0002 C.ar    1  LIG1        0.0325
     17 C           5.5600   -0.0451    0.0016 C.ar    1  LIG1       -0.0387
     18 C           3.4843    1.1831   -0.0005 C.ar    1  LIG1        0.0063
     19 C           6.2742    1.1510    0.0017 C.ar    1  LIG1       -0.0393
     20 H           6.0950   -0.9922    0.0024 H       1  LIG1        0.0637
     21 C           4.1968    2.3775   -0.0004 C.ar    1  LIG1       -0.0315
     22 C           5.5955    2.3702    0.0006 C.ar    1  LIG1        0.0252
     23 H           3.6591    3.3222   -0.0009 H       1  LIG1        0.0643
     24 H           7.5740    1.1267    0.0029 H       1  LIG1        0.0636
     25 N           3.5411   -1.2065   -0.0001 N.pl3   1  LIG1       -0.3575
     26 H           2.6638   -1.1171   -0.4716 H       1  LIG1        0.1423
     27 H           4.1054   -1.8841   -0.4716 H       1  LIG1        0.1423
     28 N           6.2562    3.4899    0.0008 N.pl3   1  LIG1       -0.3579
     29 H           7.1288    3.3621   -0.4705 H       1  LIG1        0.1423
     30 H           5.7224    4.1919   -0.4706 H       1  LIG1        0.1423
@<TRIPOS>BOND
     1    15    13    1
     2    14    13    1
     3    27    25    1
     4    26    25    1
     5    12    10    1
     6    11    10    1
     7    30    28    1
     8    29    28    1
     9    13     7    1
    10    23    21    1
    11     7     6   ar
    12     7     4   ar
    13    18    21   ar
    14    18     4    1
    15    18    16   ar
    16    21    22   ar
    17     6     8    1
    18     6     3   ar
    19     4     2   ar
    20    25    16    1
    21     1     3   ar
    22     1     2   ar
    23     1    10    1
    24     3     9    1
    25     2     5    1
    26    16    17   ar
    27    22    28    1
    28    22    19   ar
    29    17    19   ar
    30    17    20    1
    31    19    24    1
