@<TRIPOS>MOLECULE
mol_data/noopt/geoms/mol2/4hh6ee-4he6ld.out
 57 62 0 0 0
SMALL
GASTEIGER

@<TRIPOS>ATOM
      1 C           0.0509    0.0309    0.0002 C.ar    1  LIG1        0.0252
      2 C           1.4592    0.0309    0.0002 C.ar    1  LIG1       -0.0315
      3 C          -0.6045    1.2792    0.0002 C.ar    1  LIG1       -0.0393
      4 C           2.1849    1.2200   -0.0004 C.ar    1  LIG1        0.0064
      5 H           1.9850   -0.9213    0.0004 H       1  LIG1        0.0643
      6 C           0.1195    2.4666   -0.0004 C.ar    1  LIG1       -0.0385
      7 C           1.5181    2.4458   -0.0008 C.ar    1  LIG1        0.0354
      8 H          -0.4090    3.4165   -0.0003 H       1  LIG1        0.0637
      9 H          -1.9035    1.3287    0.0016 H       1  LIG1        0.0636
     10 N          -0.5709   -1.1108    0.0005 N.pl3   1  LIG1       -0.3579
     11 H          -1.4474   -1.0131   -0.4708 H       1  LIG1        0.1423
     12 H          -0.0133   -1.7941   -0.4709 H       1  LIG1        0.1423
     13 N           2.1896    3.5590   -0.0012 N.pl3   1  LIG1       -0.3381
     14 H           3.0608    3.4225   -0.4727 H       1  LIG1        0.0390
     15 H           1.6626    4.2660   -0.4727 H       1  LIG1        0.1465
     16 C           4.2297    2.3762   -0.0216 C.ar    1  LIG1        0.0553
     17 C           3.4844    1.1831   -0.0005 C.ar    1  LIG1        0.0059
     18 C           4.1715   -0.0320    0.0205 C.ar    1  LIG1       -0.0467
     19 C           5.5674   -0.0147    0.0195 C.ar    1  LIG1       -0.0168
     20 C           6.2235    1.2297   -0.0026 C.ar    1  LIG1        0.0766
     21 N           5.5764    2.4113   -0.0228 N.ar    1  LIG1       -0.2503
     22 H           3.6233   -0.9846    0.0362 H       1  LIG1        0.0628
     23 C           3.6351    3.5321   -0.0414 C.3     1  LIG1        0.0320
     24 C           3.0858    4.6002   -0.0598 C.3     1  LIG1        0.0484
     25 H           2.5965    5.5516   -0.0761 H       1  LIG1        0.0522
     26 C           6.2531   -1.1189    0.0383 C.3     1  LIG1       -0.0033
     27 C           6.8868   -2.1392    0.0557 C.3     1  LIG1       -0.0262
     28 H           7.4513   -3.0481    0.0712 H       1  LIG1        0.0313
     29 C           8.2870    0.1135   -0.0046 C.ar    1  LIG1        0.0541
     30 C           9.6896    0.2405   -0.0049 C.ar    1  LIG1       -0.0306
     31 C           7.5217    1.2976   -0.0044 C.ar    1  LIG1        0.0232
     32 C          10.3050    1.4903   -0.0057 C.ar    1  LIG1       -0.0071
     33 H          10.2991   -0.6604   -0.0048 H       1  LIG1        0.0643
     34 C           8.1356    2.5455   -0.0051 C.ar    1  LIG1       -0.0463
     35 C           9.5304    2.6509   -0.0059 C.ar    1  LIG1       -0.0271
     36 H           7.5236    3.4438   -0.0049 H       1  LIG1        0.0628
     37 N           7.7708   -1.0796   -0.0041 N.pl3   1  LIG1       -0.2659
     38 H           6.8890   -1.0614   -0.4754 H       1  LIG1        0.0358
     39 H           8.3877   -1.7099   -0.4754 H       1  LIG1        0.1699
     40 C          10.0987    3.8201   -0.0065 C.3     1  LIG1        0.0608
     41 C          10.6238    4.9004   -0.0070 C.3     1  LIG1        0.1105
     42 H          11.0916    5.8628   -0.0074 H       1  LIG1        0.0740
     43 C          12.2372    2.8264   -0.0062 C.ar    1  LIG1        0.2230
     44 C          11.6025    1.5707   -0.0061 C.ar    1  LIG1        0.0452
     45 C          12.3965    0.4224   -0.0062 C.ar    1  LIG1       -0.0301
     46 C          13.7851    0.5655   -0.0065 C.ar    1  LIG1        0.0706
     47 C          14.3263    1.8642   -0.0068 C.ar    1  LIG1        0.0488
     48 N          13.5752    2.9828   -0.0065 N.ar    1  LIG1       -0.2195
     49 H          11.9364   -0.5759   -0.0071 H       1  LIG1        0.0639
     50 H          15.6131    2.0490   -0.0070 H       1  LIG1        0.0844
     51 O          11.5408    3.9241   -0.0060 O.3     1  LIG1       -0.4720
     52 C          12.4234    5.0493   -0.0060 C.3     1  LIG1       -0.0268
     53 H          11.8498    5.9526   -0.0061 H       1  LIG1        0.0265
     54 H          13.0404    5.0186    0.8677 H       1  LIG1        0.0265
     55 H          13.0404    5.0186   -0.8796 H       1  LIG1        0.0265
     56 N          15.2580   -1.3880   -0.0070 N.1     1  LIG1       -0.1908
     57 C          14.5677   -0.4725   -0.0068 C.1     1  LIG1        0.1007
@<TRIPOS>BOND
     1    55    52    1
     2    39    37    1
     3    38    26    1
     4    15    13    1
     5    14    23    1
     6    12    10    1
     7    11    10    1
     8    25    24    1
     9    24    23    1
    10    24    13    1
    11    23    16    1
    12    21    16   ar
    13    21    20   ar
    14    16    17   ar
    15    42    41    1
    16    49    45    1
    17    56    57    3
    18    50    47    1
    19    41    40    1
    20    41    52    1
    21    41    51    1
    22    57    46    1
    23    47    46   ar
    24    47    48   ar
    25    46    45   ar
    26    48    43   ar
    27    40    35    1
    28    45    44   ar
    29    43    44   ar
    30    43    51    1
    31    44    32    1
    32    53    52    1
    33    52    54    1
    34    35    32   ar
    35    35    34   ar
    36    32    30   ar
    37    34    36    1
    38    34    31   ar
    39    30    33    1
    40    30    29   ar
    41    29    31   ar
    42    29    37    1
    43    31    20    1
    44    20    19   ar
    45    13     7    1
    46     7     4   ar
    47     7     6   ar
    48    17     4    1
    49    17    18   ar
    50     4     2   ar
    51     6     8    1
    52     6     3   ar
    53     2     1   ar
    54     2     5    1
    55     3     1   ar
    56     3     9    1
    57     1    10    1
    58    19    18   ar
    59    19    26    1
    60    18    22    1
    61    26    27    1
    62    27    28    1
