@<TRIPOS>MOLECULE
mol_data/noopt/geoms/mol2/4hi13hf-6da12li.out
 52 54 0 0 0
SMALL
GASTEIGER

@<TRIPOS>ATOM
      1 C           0.0509    0.0309    0.0002 C.ar    1  LIG1        0.0252
      2 C           1.4592    0.0309    0.0002 C.ar    1  LIG1       -0.0316
      3 C          -0.6045    1.2792    0.0002 C.ar    1  LIG1       -0.0408
      4 C           2.1849    1.2200   -0.0004 C.ar    1  LIG1        0.0049
      5 H           1.9850   -0.9213    0.0004 H       1  LIG1        0.0643
      6 C           0.1195    2.4666   -0.0004 C.ar    1  LIG1       -0.0565
      7 C           1.5181    2.4458   -0.0008 C.ar    1  LIG1       -0.0412
      8 H          -0.4090    3.4165   -0.0003 H       1  LIG1        0.0621
      9 H          -1.9035    1.3287    0.0016 H       1  LIG1        0.0636
     10 N          -0.5709   -1.1108    0.0005 N.pl3   1  LIG1       -0.3579
     11 H          -1.4474   -1.0131   -0.4708 H       1  LIG1        0.1423
     12 H          -0.0133   -1.7941   -0.4709 H       1  LIG1        0.1423
     13 C           2.1897    3.5592   -0.0012 C.3     1  LIG1       -0.0391
     14 H           1.6260    4.3160    0.5031 H       1  LIG1        0.0278
     15 H           2.3738    3.8644   -1.0102 H       1  LIG1        0.0278
     16 H           3.1221    3.4135    0.5030 H       1  LIG1        0.0278
     17 C           3.4844    1.1831   -0.0005 C.ar    1  LIG1        0.0718
     18 C           4.3366    0.1241    0.0157 C.ar    1  LIG1        0.0929
     19 C           5.6695    0.6477    0.0079 C.ar    1  LIG1        0.1635
     20 C           5.5731    2.0035   -0.0145 C.ar    1  LIG1        0.0936
     21 N           4.2371    2.3356   -0.0192 N.ar    1  LIG1       -0.3497
     22 H           3.8736    3.2606   -0.0344 H       1  LIG1        0.1661
     23 N           3.9999   -1.1313    0.0361 N.pl3   1  LIG1       -0.3535
     24 H           3.1230   -1.2488   -0.4300 H       1  LIG1        0.1425
     25 H           4.7002   -1.6719   -0.4301 H       1  LIG1        0.1425
     26 O           6.7709   -0.0429    0.0195 O.3     1  LIG1       -0.5031
     27 H           7.5230    0.5536    0.0224 H       1  LIG1        0.2923
     28 C           6.1559    4.2791   -0.0369 C.ar    1  LIG1        0.1500
     29 C           6.5000    2.9149   -0.0291 C.ar    1  LIG1        0.0384
     30 C           7.8523    2.5684   -0.0370 C.ar    1  LIG1       -0.0398
     31 C           8.8069    3.5869   -0.0525 C.ar    1  LIG1        0.0141
     32 C           8.3640    4.9223   -0.0595 C.ar    1  LIG1        0.1190
     33 N           7.0635    5.2744   -0.0518 N.ar    1  LIG1       -0.2318
     34 H           8.1595    1.5130   -0.0323 H       1  LIG1        0.0632
     35 N           3.8118    4.9797   -0.0237 N.1     1  LIG1       -0.1893
     36 C           4.9103    4.6514   -0.0299 C.1     1  LIG1        0.1198
     37 H          10.0784    3.3162   -0.0606 H       1  LIG1        0.0194
     38 C           9.2144    5.9054   -0.0738 C.ar    1  LIG1        0.2002
     39 C          10.5895    6.0163   -0.0699 C.ar    1  LIG1        0.2287
     40 C          10.8914    7.4324   -0.0945 C.ar    1  LIG1        0.0347
     41 C           9.6803    8.0931   -0.1120 C.ar    1  LIG1        0.0994
     42 O           8.6314    7.1731   -0.0998 O.2     1  LIG1       -0.4571
     43 H           9.3042    9.3372   -0.1365 H       1  LIG1        0.1033
     44 O          11.4652    5.0557   -0.0484 O.3     1  LIG1       -0.2835
     45 C          10.7905    3.7949   -0.0405 C.3     2  LIG2       -0.0776
     46 H          11.5116    3.0046   -0.0230 H       1  LIG1        0.0194
     47 H          10.1679    3.7289    0.8272 H       1  LIG1        0.0194
     48 H          10.1872    3.7078   -0.9199 H       1  LIG1        0.0194
     49 C          12.0829    7.9532   -0.0989 C.3     1  LIG1       -0.0330
     50 H          12.0613    8.8972    0.4043 H       1  LIG1        0.0280
     51 H          12.4066    8.0948   -1.1090 H       1  LIG1        0.0280
     52 H          12.7612    7.2962    0.4042 H       1  LIG1        0.0280
@<TRIPOS>BOND
     1    51    49    1
     2    15    13    1
     3    48    45    1
     4    12    10    1
     5    11    10    1
     6    25    23    1
     7    24    23    1
     8    43    41    1
     9    41    42   ar
    10    41    40   ar
    11    42    38   ar
    12    49    40    1
    13    49    52    1
    14    49    50    1
    15    40    39   ar
    16    38    39   ar
    17    38    32    1
    18    39    44    1
    19    37    45    1
    20    32    31   ar
    21    32    33   ar
    22    31    30   ar
    23    33    28   ar
    24    45    46    1
    25    45    47    1
    26    30    34    1
    27    30    29   ar
    28    28    36    1
    29    28    29   ar
    30    22    21    1
    31    36    35    3
    32    29    20    1
    33    21    20   ar
    34    21    17   ar
    35    20    19   ar
    36    13     7    1
    37    13    16    1
    38    13    14    1
    39     7     4   ar
    40     7     6   ar
    41    17     4    1
    42    17    18   ar
    43     4     2   ar
    44     6     8    1
    45     6     3   ar
    46     2     1   ar
    47     2     5    1
    48     3     1   ar
    49     3     9    1
    50     1    10    1
    51    19    18   ar
    52    19    26    1
    53    18    23    1
    54    26    27    1
