@<TRIPOS>MOLECULE
mol_data/noopt/geoms/mol2/4hi13hd(60)13eh(220)6dh(110).out
 52 55 0 0 0
SMALL
GASTEIGER

@<TRIPOS>ATOM
      1 C           0.0509    0.0309    0.0002 C.ar    1  LIG1        0.0252
      2 C           1.4592    0.0309    0.0002 C.ar    1  LIG1       -0.0316
      3 C          -0.6045    1.2792    0.0002 C.ar    1  LIG1       -0.0408
      4 C           2.1849    1.2200   -0.0004 C.ar    1  LIG1        0.0048
      5 H           1.9850   -0.9213    0.0004 H       1  LIG1        0.0643
      6 C           0.1195    2.4666   -0.0004 C.ar    1  LIG1       -0.0565
      7 C           1.5181    2.4458   -0.0008 C.ar    1  LIG1       -0.0412
      8 H          -0.4090    3.4165   -0.0003 H       1  LIG1        0.0621
      9 H          -1.9035    1.3287    0.0016 H       1  LIG1        0.0636
     10 N          -0.5709   -1.1108    0.0005 N.pl3   1  LIG1       -0.3579
     11 H          -1.4474   -1.0131   -0.4708 H       1  LIG1        0.1423
     12 H          -0.0133   -1.7941   -0.4709 H       1  LIG1        0.1423
     13 C           2.1897    3.5592   -0.0012 C.3     1  LIG1       -0.0391
     14 H           1.6260    4.3160    0.5031 H       1  LIG1        0.0278
     15 H           2.3738    3.8644   -1.0102 H       1  LIG1        0.0278
     16 H           3.1221    3.4135    0.5030 H       1  LIG1        0.0278
     17 C           3.4844    1.1831   -0.0005 C.ar    1  LIG1        0.0695
     18 C           4.3504    0.6080    0.8754 C.ar    1  LIG1        0.0685
     19 C           5.6758    0.8700    0.4007 C.ar    1  LIG1        0.0996
     20 C           5.5614    1.5921   -0.7454 C.ar    1  LIG1        0.0840
     21 N           4.2214    1.7865   -0.9944 N.ar    1  LIG1       -0.3505
     22 H           3.8458    2.2830   -1.7692 H       1  LIG1        0.1660
     23 N           4.0306   -0.0555    1.9466 N.pl3   1  LIG1       -0.3553
     24 H           3.0444   -0.2209    1.9542 H       1  LIG1        0.1424
     25 H           4.5153   -0.9301    1.9542 H       1  LIG1        0.1424
     26 N           7.7652    0.1527    1.4523 N.1     1  LIG1       -0.1907
     27 C           6.7860    0.4888    0.9594 C.1     1  LIG1        0.1032
     28 C           6.4757    2.0652   -1.5392 C.ar    1  LIG1        0.0821
     29 C           6.3770    2.9365   -2.5780 C.ar    1  LIG1        0.0726
     30 C           7.6936    3.1165   -3.1117 C.ar    1  LIG1        0.0665
     31 C           8.5392    2.3487   -2.3745 C.ar    1  LIG1        0.0719
     32 N           7.7977    1.7030   -1.4110 N.ar    1  LIG1       -0.3505
     33 H           8.1594    1.0755   -0.7303 H       1  LIG1        0.1660
     34 C           5.2862    3.4993   -3.0062 C.1     1  LIG1       -0.0656
     35 C           4.2783    4.0194   -3.4018 C.1     1  LIG1       -0.1138
     36 H           3.3805    4.4826   -3.7542 H       1  LIG1        0.1232
     37 N           8.0234    3.8739   -4.1156 N.pl3   1  LIG1       -0.3554
     38 H           8.7112    3.4084   -4.6725 H       1  LIG1        0.1424
     39 H           7.2140    4.0603   -4.6725 H       1  LIG1        0.1424
     40 C          10.3883    1.6835   -3.6616 C.ar    1  LIG1        0.1493
     41 C           9.8242    2.1776   -2.4712 C.ar    1  LIG1        0.0377
     42 C          10.6742    2.4773   -1.4050 C.ar    1  LIG1       -0.0277
     43 C          12.0464    2.2751   -1.5621 C.ar    1  LIG1        0.0436
     44 C          12.5153    1.7766   -2.7914 C.ar    1  LIG1        0.0497
     45 N          11.7096    1.4823   -3.8304 N.ar    1  LIG1       -0.2421
     46 H          10.2698    2.8643   -0.4589 H       1  LIG1        0.0644
     47 H          13.7842    1.5716   -2.9860 H       1  LIG1        0.0849
     48 N           8.9763    1.1314   -5.5819 N.1     1  LIG1       -0.1893
     49 C           9.6380    1.3901   -4.6820 C.1     1  LIG1        0.1198
     50 N          12.8791    2.5386   -0.5992 N.pl3   1  LIG1       -0.3568
     51 H          13.6719    1.9331   -0.6691 H       1  LIG1        0.1424
     52 H          13.1792    3.4900   -0.6691 H       1  LIG1        0.1424
@<TRIPOS>BOND
     1    48    49    3
     2    49    40    1
     3    39    37    1
     4    38    37    1
     5    37    30    1
     6    45    40   ar
     7    45    44   ar
     8    36    35    1
     9    40    41   ar
    10    35    34    3
    11    30    29   ar
    12    30    31   ar
    13    34    29    1
    14    47    44    1
    15    44    43   ar
    16    29    28   ar
    17    41    31    1
    18    41    42   ar
    19    31    32   ar
    20    22    21    1
    21    43    42   ar
    22    43    50    1
    23    28    32   ar
    24    28    20    1
    25    32    33    1
    26    42    46    1
    27    15    13    1
    28    21    20   ar
    29    21    17   ar
    30    20    19   ar
    31    52    50    1
    32    51    50    1
    33    12    10    1
    34    11    10    1
    35    13     7    1
    36    13    16    1
    37    13    14    1
    38     7     6   ar
    39     7     4   ar
    40    17     4    1
    41    17    18   ar
    42     6     8    1
    43     6     3   ar
    44     4     2   ar
    45     1     3   ar
    46     1     2   ar
    47     1    10    1
    48     3     9    1
    49     2     5    1
    50    19    18   ar
    51    19    27    1
    52    18    23    1
    53    27    26    3
    54    23    25    1
    55    23    24    1
