@<TRIPOS>MOLECULE
mol_data/noopt/geoms/mol2/4hi12ah-4hi-6di.out
 54 57 0 0 0
SMALL
GASTEIGER

@<TRIPOS>ATOM
      1 C           0.0509    0.0309    0.0002 C.ar    1  LIG1        0.0252
      2 C           1.4592    0.0309    0.0002 C.ar    1  LIG1       -0.0301
      3 C          -0.6045    1.2792    0.0002 C.ar    1  LIG1       -0.0408
      4 C           2.1849    1.2200   -0.0004 C.ar    1  LIG1        0.0220
      5 H           1.9850   -0.9213    0.0004 H       1  LIG1        0.0643
      6 C           0.1195    2.4666   -0.0004 C.ar    1  LIG1       -0.0564
      7 C           1.5181    2.4458   -0.0008 C.ar    1  LIG1       -0.0397
      8 H          -0.4090    3.4165   -0.0003 H       1  LIG1        0.0621
      9 H          -1.9035    1.3287    0.0016 H       1  LIG1        0.0636
     10 N          -0.5709   -1.1108    0.0005 N.pl3   1  LIG1       -0.3579
     11 H          -1.4474   -1.0131   -0.4708 H       1  LIG1        0.1423
     12 H          -0.0133   -1.7941   -0.4709 H       1  LIG1        0.1423
     13 C           2.1897    3.5592   -0.0012 C.3     1  LIG1       -0.0390
     14 H           1.6260    4.3160    0.5031 H       1  LIG1        0.0278
     15 H           2.3738    3.8644   -1.0102 H       1  LIG1        0.0278
     16 H           3.1221    3.4135    0.5030 H       1  LIG1        0.0278
     17 C           3.4844    1.1831   -0.0005 C.ar    1  LIG1        0.1378
     18 C           4.4399    0.1882    0.0142 C.ar    1  LIG1        0.0055
     19 C           5.7279    0.8500    0.0034 C.ar    1  LIG1        0.0716
     20 C           5.4738    2.2059   -0.0172 C.ar    1  LIG1        0.1580
     21 O           4.0977    2.4365   -0.0202 O.2     1  LIG1       -0.4529
     22 H           4.2495   -1.0976    0.0341 H       1  LIG1        0.0674
     23 N           6.8846    0.2567    0.0119 N.pl3   1  LIG1       -0.3550
     24 H           6.8112   -0.6234   -0.4573 H       1  LIG1        0.1424
     25 H           7.5565    0.8296   -0.4573 H       1  LIG1        0.1424
     26 C           7.6061    3.1843   -0.0211 C.ar    1  LIG1        0.0360
     27 C           8.3476    4.3815   -0.0388 C.ar    1  LIG1       -0.0323
     28 C           6.1998    3.2841   -0.0341 C.ar    1  LIG1        0.0400
     29 C           7.7187    5.6242   -0.0687 C.ar    1  LIG1       -0.0108
     30 H           9.4339    4.3274   -0.0290 H       1  LIG1        0.0642
     31 C           5.5715    4.5245   -0.0639 C.ar    1  LIG1       -0.0455
     32 C           6.3256    5.7025   -0.0815 C.ar    1  LIG1       -0.0385
     33 H           4.4857    4.5751   -0.0733 H       1  LIG1        0.0628
     34 N           8.2494    2.0550    0.0064 N.pl3   1  LIG1       -0.3574
     35 H           7.7098    1.3526   -0.4579 H       1  LIG1        0.1423
     36 H           9.1287    2.1608   -0.4579 H       1  LIG1        0.1423
     37 C           5.7326    6.8594   -0.1093 C.3     1  LIG1       -0.0231
     38 H           4.7876    6.7878    0.3874 H       1  LIG1        0.0316
     39 H           5.5797    7.1575   -1.1255 H       1  LIG1        0.0316
     40 H           6.3425    7.5848    0.3874 H       1  LIG1        0.0870
     41 C           7.8122    7.9713   -0.0929 C.ar    1  LIG1        0.0913
     42 C           8.4342    6.7095   -0.0844 C.ar    1  LIG1        0.0096
     43 C           9.8292    6.6538   -0.0930 C.ar    1  LIG1       -0.0476
     44 C          10.5493    7.8495   -0.1098 C.ar    1  LIG1       -0.0317
     45 C           9.8367    9.0626   -0.1174 C.ar    1  LIG1        0.0312
     46 N           8.4913    9.1347   -0.1091 N.ar    1  LIG1       -0.2531
     47 H          10.3505    5.6860   -0.0878 H       1  LIG1        0.0627
     48 H          10.4625   10.2019   -0.1329 H       1  LIG1        0.0832
     49 N           5.3733    8.1658   -0.0787 N.2     1  LIG1       -0.1555
     50 C           6.5163    8.0746   -0.0853 C.2     1  LIG1        0.0758
     51 C          11.8496    7.8509   -0.1185 C.3     1  LIG1       -0.0383
     52 H          12.2087    8.7250    0.3835 H       1  LIG1        0.0278
     53 H          12.1995    7.8514   -1.1298 H       1  LIG1        0.0278
     54 H          12.2106    6.9777    0.3834 H       1  LIG1        0.0278
@<TRIPOS>BOND
     1    53    51    1
     2    39    37    1
     3    15    13    1
     4    12    10    1
     5    11    10    1
     6    36    34    1
     7    35    34    1
     8    25    23    1
     9    24    23    1
    10    48    45    1
    11    51    44    1
    12    51    54    1
    13    51    52    1
    14    45    44   ar
    15    45    46   ar
    16    44    43   ar
    17    37    32    1
    18    37    38    1
    19    46    41   ar
    20    43    47    1
    21    43    42   ar
    22    41    50    1
    23    41    42   ar
    24    50    49    2
    25    50    40    1
    26    42    29    1
    27    32    29   ar
    28    32    31   ar
    29    33    31    1
    30    29    27   ar
    31    31    28   ar
    32    27    30    1
    33    27    26   ar
    34    28    26   ar
    35    28    20    1
    36    26    34    1
    37    21    20   ar
    38    21    17   ar
    39    20    19   ar
    40    13     7    1
    41    13    16    1
    42    13    14    1
    43     7     6   ar
    44     7     4   ar
    45    17     4    1
    46    17    18   ar
    47     6     8    1
    48     6     3   ar
    49     4     2   ar
    50     1     3   ar
    51     1     2   ar
    52     1    10    1
    53     3     9    1
    54     2     5    1
    55    19    23    1
    56    19    18   ar
    57    18    22    1
