@<TRIPOS>MOLECULE
mol_data/noopt/geoms/mol2/4hi12lh(50)13li13hd(270).out
 56 59 0 0 0
SMALL
GASTEIGER

@<TRIPOS>ATOM
      1 C           0.0509    0.0309    0.0002 C.ar    1  LIG1        0.0252
      2 C           1.4592    0.0309    0.0002 C.ar    1  LIG1       -0.0300
      3 C          -0.6045    1.2792    0.0002 C.ar    1  LIG1       -0.0408
      4 C           2.1849    1.2200   -0.0004 C.ar    1  LIG1        0.0256
      5 H           1.9850   -0.9213    0.0004 H       1  LIG1        0.0643
      6 C           0.1195    2.4666   -0.0004 C.ar    1  LIG1       -0.0564
      7 C           1.5181    2.4458   -0.0008 C.ar    1  LIG1       -0.0396
      8 H          -0.4090    3.4165   -0.0003 H       1  LIG1        0.0621
      9 H          -1.9035    1.3287    0.0016 H       1  LIG1        0.0636
     10 N          -0.5709   -1.1108    0.0005 N.pl3   1  LIG1       -0.3579
     11 H          -1.4474   -1.0131   -0.4708 H       1  LIG1        0.1423
     12 H          -0.0133   -1.7941   -0.4709 H       1  LIG1        0.1423
     13 C           2.1897    3.5592   -0.0012 C.3     1  LIG1       -0.0390
     14 H           1.6260    4.3160    0.5031 H       1  LIG1        0.0278
     15 H           2.3738    3.8644   -1.0102 H       1  LIG1        0.0278
     16 H           3.1221    3.4135    0.5030 H       1  LIG1        0.0278
     17 C           3.4844    1.1831   -0.0005 C.ar    1  LIG1        0.1794
     18 C           4.4484    0.4862    0.6981 C.ar    1  LIG1        0.1871
     19 C           5.7303    0.9329    0.1938 C.ar    1  LIG1        0.1155
     20 C           5.4643    1.8735   -0.7799 C.ar    1  LIG1        0.1796
     21 O           4.0865    2.0450   -0.9182 O.2     1  LIG1       -0.4475
     22 O           4.2694   -0.4020    1.6304 O.3     1  LIG1       -0.4896
     23 C           2.8822   -0.4617    1.9726 C.3     1  LIG1        0.0791
     24 H           2.7353   -1.1930    2.7398 H       1  LIG1        0.0660
     25 H           2.5605    0.4956    2.3260 H       1  LIG1        0.0660
     26 H           2.3129   -0.7325    1.1081 H       1  LIG1        0.0660
     27 N           6.8919    0.5122    0.5984 N.pl3   1  LIG1       -0.3521
     28 H           7.0496   -0.4133    0.2541 H       1  LIG1        0.1425
     29 H           7.6057    1.1220    0.2541 H       1  LIG1        0.1425
     30 C           6.1807    2.6134   -1.5733 C.ar    1  LIG1        0.1270
     31 C           7.4167    2.4030   -2.0987 C.ar    1  LIG1        0.1519
     32 C           7.7362    3.5397   -2.9088 C.ar    1  LIG1        0.0187
     33 C           6.6807    4.3940   -2.8442 C.ar    1  LIG1        0.0718
     34 N           5.7264    3.8310   -2.0273 N.ar    1  LIG1       -0.3474
     35 H           4.8483    4.2386   -1.8016 H       1  LIG1        0.1662
     36 O           8.1680    1.3610   -1.8988 O.3     1  LIG1       -0.4926
     37 C           7.3504    0.1900   -1.8255 C.3     1  LIG1        0.0789
     38 H           7.9691   -0.6673   -1.6612 H       1  LIG1        0.0660
     39 H           6.6566    0.2895   -1.0169 H       1  LIG1        0.0660
     40 H           6.8136    0.0718   -2.7435 H       1  LIG1        0.0660
     41 C           8.8324    3.7242   -3.5835 C.3     1  LIG1       -0.0341
     42 H           9.2462    4.6798   -3.3374 H       1  LIG1        0.0279
     43 H           8.6168    3.6880   -4.6310 H       1  LIG1        0.0279
     44 H           9.5361    2.9567   -3.3374 H       1  LIG1        0.0279
     45 C           6.4974    5.5523   -3.4054 C.ar    1  LIG1        0.0855
     46 C           6.4424    5.8969   -4.7192 C.ar    1  LIG1        0.0692
     47 C           6.2201    7.3102   -4.7816 C.ar    1  LIG1        0.0903
     48 C           6.1474    7.7668   -3.5032 C.ar    1  LIG1        0.0215
     49 N           6.3171    6.6939   -2.6574 N.ar    1  LIG1       -0.3568
     50 H           6.3100    6.7366   -1.6644 H       1  LIG1        0.1655
     51 H           5.9579    8.9690   -3.0463 H       1  LIG1        0.0820
     52 N           6.5700    5.0896   -5.7301 N.pl3   1  LIG1       -0.3553
     53 H           5.7390    5.1171   -6.2857 H       1  LIG1        0.1424
     54 H           7.3519    5.3722   -6.2857 H       1  LIG1        0.1424
     55 N           6.0084    8.6605   -6.8108 N.1     1  LIG1       -0.1908
     56 C           6.1076    8.0277   -5.8598 C.1     1  LIG1        0.1025
@<TRIPOS>BOND
     1    55    56    3
     2    54    52    1
     3    53    52    1
     4    56    47    1
     5    52    46    1
     6    47    46   ar
     7    47    48   ar
     8    46    45   ar
     9    43    41    1
    10    41    44    1
    11    41    42    1
    12    41    32    1
    13    48    51    1
    14    48    49   ar
    15    45    33    1
    16    45    49   ar
    17    32    33   ar
    18    32    31   ar
    19    33    34   ar
    20    40    37    1
    21    49    50    1
    22    31    36    1
    23    31    30   ar
    24    34    35    1
    25    34    30   ar
    26    36    37    1
    27    37    38    1
    28    37    39    1
    29    30    20    1
    30    15    13    1
    31    21    20   ar
    32    21    17   ar
    33    20    19   ar
    34    12    10    1
    35    11    10    1
    36    13     7    1
    37    13    16    1
    38    13    14    1
    39     7     6   ar
    40     7     4   ar
    41    17     4    1
    42    17    18   ar
    43     6     8    1
    44     6     3   ar
    45     4     2   ar
    46     1     2   ar
    47     1     3   ar
    48     1    10    1
    49     2     5    1
    50     3     9    1
    51    19    27    1
    52    19    18   ar
    53    29    27    1
    54    28    27    1
    55    18    22    1
    56    26    23    1
    57    22    23    1
    58    23    25    1
    59    23    24    1
