@<TRIPOS>MOLECULE
mol_data/noopt/geoms/mol2/4hi13fd(220)4ll(70)6id(130).out
 58 59 0 0 0
SMALL
GASTEIGER

@<TRIPOS>ATOM
      1 C           0.0509    0.0309    0.0002 C.ar    1  LIG1        0.0252
      2 C           1.4592    0.0309    0.0002 C.ar    1  LIG1       -0.0316
      3 C          -0.6045    1.2792    0.0002 C.ar    1  LIG1       -0.0408
      4 C           2.1849    1.2200   -0.0004 C.ar    1  LIG1        0.0066
      5 H           1.9850   -0.9213    0.0004 H       1  LIG1        0.0643
      6 C           0.1195    2.4666   -0.0004 C.ar    1  LIG1       -0.0565
      7 C           1.5181    2.4458   -0.0008 C.ar    1  LIG1       -0.0411
      8 H          -0.4090    3.4165   -0.0003 H       1  LIG1        0.0621
      9 H          -1.9035    1.3287    0.0016 H       1  LIG1        0.0636
     10 N          -0.5709   -1.1108    0.0005 N.pl3   1  LIG1       -0.3579
     11 H          -1.4474   -1.0131   -0.4708 H       1  LIG1        0.1423
     12 H          -0.0133   -1.7941   -0.4709 H       1  LIG1        0.1423
     13 C           2.1897    3.5592   -0.0012 C.3     1  LIG1       -0.0391
     14 H           1.6260    4.3160    0.5031 H       1  LIG1        0.0278
     15 H           2.3738    3.8644   -1.0102 H       1  LIG1        0.0278
     16 H           3.1221    3.4135    0.5030 H       1  LIG1        0.0278
     17 C           3.4844    1.1831   -0.0005 C.ar    1  LIG1        0.0906
     18 C           4.3892    1.9769   -0.6323 C.ar    1  LIG1        0.1600
     19 C           5.6935    1.4946   -0.2906 C.ar    1  LIG1        0.1190
     20 C           5.5284    0.4283    0.5364 C.ar    1  LIG1        0.0718
     21 N           4.1775    0.2339    0.7163 N.ar    1  LIG1       -0.3501
     22 H           3.7676   -0.4784    1.2754 H       1  LIG1        0.1661
     23 O           4.1167    2.9862   -1.4050 O.3     1  LIG1       -0.5034
     24 H           3.1758    2.9991   -1.5955 H       1  LIG1        0.2923
     25 N           7.8292    2.4151   -1.0503 N.1     1  LIG1       -0.1907
     26 C           6.8283    1.9837   -0.6942 C.1     1  LIG1        0.1050
     27 C           6.2272   -0.7360    2.4495 C.ar    1  LIG1        0.1300
     28 C           7.2085   -1.5667    3.0242 C.ar    1  LIG1       -0.0079
     29 C           6.4076   -0.3394    1.1086 C.ar    1  LIG1        0.0450
     30 C           8.3208   -1.9857    2.2976 C.ar    1  LIG1        0.0344
     31 H           7.0890   -1.8843    4.0576 H       1  LIG1        0.0661
     32 C           7.5178   -0.7574    0.3829 C.ar    1  LIG1       -0.0017
     33 C           8.4816   -1.5828    0.9713 C.ar    1  LIG1        0.1875
     34 H           7.6344   -0.4379   -0.6496 H       1  LIG1        0.0664
     35 O           5.2114   -0.3782    3.1777 O.3     1  LIG1       -0.4944
     36 C           5.2862    1.0246    3.4449 C.3     1  LIG1        0.0788
     37 H           4.4499    1.3187    4.0441 H       1  LIG1        0.0660
     38 H           6.1939    1.2399    3.9692 H       1  LIG1        0.0660
     39 H           5.2710    1.5649    2.5215 H       1  LIG1        0.0660
     40 O           9.5175   -1.9703    0.2880 O.3     1  LIG1       -0.2872
     41 C           9.4255   -3.3751    0.0371 C.3     2  LIG2       -0.0681
     42 H          10.2781   -3.6935   -0.5255 H       1  LIG1        0.0227
     43 H           9.3950   -3.9024    0.9677 H       2  LIG2        0.0227
     44 H           8.5345   -3.5806   -0.5187 H       1  LIG1        0.0227
     45 C           9.4857   -4.0253    2.3287 C.ar    1  LIG1        0.0976
     46 C           9.2074   -2.7525    2.8596 C.ar    1  LIG1        0.0146
     47 C           9.9031   -2.3378    3.9967 C.ar    1  LIG1       -0.0329
     48 C          10.8448   -3.2005    4.5603 C.ar    1  LIG1        0.0704
     49 C          11.0529   -4.4542    3.9567 C.ar    1  LIG1        0.0457
     50 N          10.3908   -4.8704    2.8595 N.ar    1  LIG1       -0.2515
     51 H           9.7119   -1.3505    4.4405 H       1  LIG1        0.0638
     52 H          11.9189   -5.2921    4.4444 H       1  LIG1        0.0843
     53 C           8.8639   -4.4561    1.2711 C.3     3  LIG3       -0.0681
     54 H           8.8535   -5.5260    1.2744 H       2  LIG2        0.0227
     55 H           9.3679   -4.1070    0.3941 H       1  LIG1        0.0227
     56 H           7.8586   -4.0895    1.2744 H       2  LIG2        0.0227
     57 N          12.1125   -2.5616    6.5529 N.1     1  LIG1       -0.1908
     58 C          11.5184   -2.8610    5.6191 C.1     1  LIG1        0.1007
@<TRIPOS>BOND
     1    24    23    1
     2    23    18    1
     3    25    26    3
     4    15    13    1
     5    26    19    1
     6    34    32    1
     7    18    19   ar
     8    18    17   ar
     9    42    41    1
    10    44    41    1
    11    12    10    1
    12    11    10    1
    13    19    20   ar
    14    13     7    1
    15    13    16    1
    16    13    14    1
    17     7     6   ar
    18     7     4   ar
    19    17     4    1
    20    17    21   ar
    21     6     8    1
    22     6     3   ar
    23     4     2   ar
    24     1     2   ar
    25     1     3   ar
    26     1    10    1
    27     2     5    1
    28     3     9    1
    29    41    55    1
    30    40    33    1
    31    32    33   ar
    32    32    29   ar
    33    20    21   ar
    34    20    29    1
    35    21    22    1
    36    43    53    1
    37    33    30   ar
    38    29    27   ar
    39    53    54    1
    40    53    56    1
    41    30    46    1
    42    30    28   ar
    43    45    50   ar
    44    45    46   ar
    45    27    28   ar
    46    27    35    1
    47    39    36    1
    48    50    49   ar
    49    46    47   ar
    50    28    31    1
    51    35    36    1
    52    36    38    1
    53    36    37    1
    54    49    52    1
    55    49    48   ar
    56    47    51    1
    57    47    48   ar
    58    48    58    1
    59    58    57    3
