@<TRIPOS>MOLECULE
mol_data/noopt/geoms/mol2/4hi6el(190)12if(120)12ih(20).out
 55 58 0 0 0
SMALL
GASTEIGER

@<TRIPOS>ATOM
      1 C           0.0509    0.0309    0.0002 C.ar    1  LIG1        0.0251
      2 C           1.4592    0.0309    0.0002 C.ar    1  LIG1       -0.0330
      3 C          -0.6045    1.2792    0.0002 C.ar    1  LIG1       -0.0408
      4 C           2.1849    1.2200   -0.0004 C.ar    1  LIG1       -0.0105
      5 H           1.9850   -0.9213    0.0004 H       1  LIG1        0.0642
      6 C           0.1195    2.4666   -0.0004 C.ar    1  LIG1       -0.0565
      7 C           1.5181    2.4458   -0.0008 C.ar    1  LIG1       -0.0425
      8 H          -0.4090    3.4165   -0.0003 H       1  LIG1        0.0621
      9 H          -1.9035    1.3287    0.0016 H       1  LIG1        0.0636
     10 N          -0.5709   -1.1108    0.0005 N.pl3   1  LIG1       -0.3579
     11 H          -1.4474   -1.0131   -0.4708 H       1  LIG1        0.1423
     12 H          -0.0133   -1.7941   -0.4709 H       1  LIG1        0.1423
     13 C           2.1897    3.5592   -0.0012 C.3     1  LIG1       -0.0391
     14 H           1.6260    4.3160    0.5031 H       1  LIG1        0.0278
     15 H           2.3738    3.8644   -1.0102 H       1  LIG1        0.0278
     16 H           3.1221    3.4135    0.5030 H       1  LIG1        0.0278
     17 C           4.1613   -0.0322    0.2099 C.ar    1  LIG1        0.1219
     18 C           3.4844    1.1831   -0.0005 C.ar    1  LIG1        0.0198
     19 C           4.2389    2.3393   -0.2081 C.ar    1  LIG1       -0.0073
     20 C           5.6315    2.2436   -0.1984 C.ar    1  LIG1        0.1496
     21 C           6.2165    0.9830    0.0206 C.ar    1  LIG1        0.1492
     22 N           5.5039   -0.1426    0.2224 N.ar    1  LIG1       -0.2310
     23 H           3.7451    3.3071   -0.3748 H       1  LIG1        0.0662
     24 C           3.5026   -1.1354    0.4075 C.1     1  LIG1       -0.0492
     25 C           2.8940   -2.1548    0.5901 C.1     1  LIG1       -0.1124
     26 H           2.3519   -3.0628    0.7528 H       1  LIG1        0.1232
     27 O           6.3784    3.2909   -0.3866 O.3     1  LIG1       -0.4928
     28 C           7.7501    2.8927   -0.4557 C.3     1  LIG1        0.0789
     29 H           8.3644    3.7550   -0.6108 H       1  LIG1        0.0660
     30 H           8.0296    2.4157    0.4604 H       1  LIG1        0.0660
     31 H           7.8826    2.2096   -1.2685 H       1  LIG1        0.0660
     32 C           7.5088    0.8431    0.0385 C.ar    1  LIG1        0.1641
     33 C           8.5326    1.2677    0.8597 C.ar    1  LIG1        0.0392
     34 C           9.7605    0.7484    0.2943 C.ar    1  LIG1        0.1694
     35 C           9.4053    0.0404   -0.8354 C.ar    1  LIG1        0.2123
     36 O           8.0222    0.0841   -1.0141 O.2     1  LIG1       -0.4460
     37 C           8.4415    1.9924    1.9356 C.3     1  LIG1       -0.0325
     38 H           7.6018    1.6680    2.5140 H       1  LIG1        0.0280
     39 H           8.3122    3.0193    1.6640 H       1  LIG1        0.0280
     40 H           9.3354    1.8862    2.5139 H       1  LIG1        0.0280
     41 O          10.9534    0.9294    0.7783 O.3     1  LIG1       -0.5029
     42 H          11.1117    1.8687    0.8975 H       1  LIG1        0.2923
     43 C          10.0438   -0.6368   -1.7430 C.ar    1  LIG1        0.1781
     44 C           9.9969   -1.9306   -2.2191 C.ar    1  LIG1        0.0191
     45 C          11.0023   -2.0275   -3.2567 C.ar    1  LIG1        0.0665
     46 C          11.5972   -0.7858   -3.3458 C.ar    1  LIG1        0.1136
     47 O          11.0231    0.0889   -2.4226 O.2     1  LIG1       -0.4576
     48 H          12.5403   -0.2604   -4.0700 H       1  LIG1        0.1049
     49 C           9.2142   -2.8937   -1.8308 C.3     1  LIG1       -0.0342
     50 H           9.7724   -3.5920   -1.2429 H       1  LIG1        0.0279
     51 H           8.8095   -3.3917   -2.6871 H       1  LIG1        0.0279
     52 H           8.4165   -2.4899   -1.2430 H       1  LIG1        0.0279
     53 N          11.2716   -3.0912   -3.9538 N.pl3   1  LIG1       -0.3553
     54 H          10.4871   -3.3193   -4.5305 H       1  LIG1        0.1424
     55 H          12.0701   -2.9185   -4.5305 H       1  LIG1        0.1424
@<TRIPOS>BOND
     1    55    53    1
     2    54    53    1
     3    48    46    1
     4    53    45    1
     5    46    45   ar
     6    46    47   ar
     7    45    44   ar
     8    51    49    1
     9    47    43   ar
    10    44    49    1
    11    44    43   ar
    12    49    52    1
    13    49    50    1
    14    43    35    1
    15    31    28    1
    16    36    35   ar
    17    36    32   ar
    18    15    13    1
    19    35    34   ar
    20    29    28    1
    21    12    10    1
    22    11    10    1
    23    28    27    1
    24    28    30    1
    25    27    20    1
    26    23    19    1
    27    19    20   ar
    28    19    18   ar
    29    20    21   ar
    30    13     7    1
    31    13    16    1
    32    13    14    1
    33     7     4   ar
    34     7     6   ar
    35    18     4    1
    36    18    17   ar
    37     4     2   ar
    38     6     8    1
    39     6     3   ar
    40     1     3   ar
    41     1     2   ar
    42     1    10    1
    43     3     9    1
    44     2     5    1
    45    21    32    1
    46    21    22   ar
    47    32    33   ar
    48    17    22   ar
    49    17    24    1
    50    34    41    1
    51    34    33   ar
    52    24    25    3
    53    25    26    1
    54    41    42    1
    55    33    37    1
    56    39    37    1
    57    37    40    1
    58    37    38    1
