@<TRIPOS>MOLECULE
mol_data/noopt/geoms/mol2/4hi6ae(250)6lf(140)13ii(220).out
 56 59 0 0 0
SMALL
GASTEIGER

@<TRIPOS>ATOM
      1 C           0.0509    0.0309    0.0002 C.ar    1  LIG1        0.0251
      2 C           1.4592    0.0309    0.0002 C.ar    1  LIG1       -0.0330
      3 C          -0.6045    1.2792    0.0002 C.ar    1  LIG1       -0.0408
      4 C           2.1849    1.2200   -0.0004 C.ar    1  LIG1       -0.0118
      5 H           1.9850   -0.9213    0.0004 H       1  LIG1        0.0642
      6 C           0.1195    2.4666   -0.0004 C.ar    1  LIG1       -0.0565
      7 C           1.5181    2.4458   -0.0008 C.ar    1  LIG1       -0.0426
      8 H          -0.4090    3.4165   -0.0003 H       1  LIG1        0.0621
      9 H          -1.9035    1.3287    0.0016 H       1  LIG1        0.0636
     10 N          -0.5709   -1.1108    0.0005 N.pl3   1  LIG1       -0.3579
     11 H          -1.4474   -1.0131   -0.4708 H       1  LIG1        0.1423
     12 H          -0.0133   -1.7941   -0.4709 H       1  LIG1        0.1423
     13 C           2.1897    3.5592   -0.0012 C.3     1  LIG1       -0.0391
     14 H           1.6260    4.3160    0.5031 H       1  LIG1        0.0278
     15 H           2.3738    3.8644   -1.0102 H       1  LIG1        0.0278
     16 H           3.1221    3.4135    0.5030 H       1  LIG1        0.0278
     17 C           4.1835    0.7474    1.1400 C.ar    1  LIG1        0.0360
     18 C           3.4844    1.1831   -0.0005 C.ar    1  LIG1        0.0017
     19 C           4.2170    1.5715   -1.1237 C.ar    1  LIG1       -0.0351
     20 C           5.6106    1.5123   -1.0703 C.ar    1  LIG1        0.0514
     21 C           6.2188    1.0627    0.1161 C.ar    1  LIG1        0.0915
     22 N           5.5274    0.6840    1.2088 N.ar    1  LIG1       -0.2530
     23 H           3.7056    1.9185   -2.0327 H       1  LIG1        0.0637
     24 H           3.5457    0.3756    2.2100 H       1  LIG1        0.0836
     25 C           6.3377    1.8630   -2.0894 C.1     1  LIG1       -0.0675
     26 C           7.0094    2.1872   -3.0309 C.1     1  LIG1       -0.1138
     27 H           7.6078    2.4759   -3.8697 H       1  LIG1        0.1232
     28 C           8.2276    0.0180   -0.5098 C.ar    1  LIG1        0.2247
     29 C           7.5130    0.9899    0.2143 C.ar    1  LIG1        0.0665
     30 C           8.2247    1.8673    1.0344 C.ar    1  LIG1       -0.0037
     31 C           9.6136    1.7456    1.1032 C.ar    1  LIG1        0.1450
     32 C          10.2383    0.7413    0.3412 C.ar    1  LIG1        0.1324
     33 N           9.5672   -0.1135   -0.4552 N.ar    1  LIG1       -0.2072
     34 H           7.7007    2.6390    1.6159 H       1  LIG1        0.0663
     35 O           7.6094   -0.8213   -1.2867 O.3     1  LIG1       -0.4792
     36 C           6.2971   -0.3300   -1.5719 C.3     1  LIG1        0.0804
     37 H           5.7888   -1.0210   -2.2115 H       1  LIG1        0.0660
     38 H           5.7506   -0.2212   -0.6584 H       1  LIG1        0.0660
     39 H           6.3699    0.6197   -2.0593 H       1  LIG1        0.0660
     40 O          10.3214    2.5382    1.8521 O.3     1  LIG1       -0.5045
     41 H           9.8209    3.3363    2.0367 H       1  LIG1        0.2922
     42 C          11.5289    0.5884    0.3719 C.ar    1  LIG1        0.0719
     43 C          12.5156    1.2965   -0.2389 C.ar    1  LIG1       -0.0207
     44 C          13.7632    0.7005    0.1340 C.ar    1  LIG1       -0.0296
     45 C          13.4841   -0.3444    0.9575 C.ar    1  LIG1        0.0054
     46 N          12.1173   -0.4169    1.1055 N.ar    1  LIG1       -0.3589
     47 H          11.6324   -1.0882    1.6553 H       1  LIG1        0.1654
     48 H          14.2775   -1.1861    1.5509 H       1  LIG1        0.0810
     49 C          12.3526    2.3242   -1.0187 C.3     1  LIG1       -0.0374
     50 H          11.3977    2.7680   -0.8289 H       1  LIG1        0.0278
     51 H          12.4026    2.0085   -2.0399 H       1  LIG1        0.0278
     52 H          13.1234    3.0416   -0.8289 H       1  LIG1        0.0278
     53 C          14.9467    1.0853   -0.2432 C.3     1  LIG1       -0.0380
     54 H          15.1403    2.0669    0.1361 H       1  LIG1        0.0278
     55 H          14.9930    1.1004   -1.3121 H       1  LIG1        0.0278
     56 H          15.6805    0.4051    0.1361 H       1  LIG1        0.0278
@<TRIPOS>BOND
     1    27    26    1
     2    26    25    3
     3    37    36    1
     4    25    20    1
     5    39    36    1
     6    51    49    1
     7    23    19    1
     8    36    35    1
     9    36    38    1
    10    55    53    1
    11    35    28    1
    12    19    20   ar
    13    19    18   ar
    14    20    21   ar
    15    49    52    1
    16    49    50    1
    17    49    43    1
    18    15    13    1
    19    28    33   ar
    20    28    29   ar
    21    12    10    1
    22    11    10    1
    23    33    32   ar
    24    53    44    1
    25    53    56    1
    26    53    54    1
    27    43    44   ar
    28    43    42   ar
    29    13     7    1
    30    13    16    1
    31    13    14    1
    32     7     6   ar
    33     7     4   ar
    34    18     4    1
    35    18    17   ar
    36     6     8    1
    37     6     3   ar
    38     4     2   ar
    39     1     3   ar
    40     1     2   ar
    41     1    10    1
    42     3     9    1
    43     2     5    1
    44    21    29    1
    45    21    22   ar
    46    44    45   ar
    47    29    30   ar
    48    32    42    1
    49    32    31   ar
    50    42    46   ar
    51    45    46   ar
    52    45    48    1
    53    30    31   ar
    54    30    34    1
    55    31    40    1
    56    46    47    1
    57    17    22   ar
    58    17    24    1
    59    40    41    1
