@<TRIPOS>MOLECULE
mol_data/noopt/geoms/mol2/4hi6ad(220)13li(50)12ae(190).out
 51 54 0 0 0
SMALL
GASTEIGER

@<TRIPOS>ATOM
      1 C           0.0509    0.0309    0.0002 C.ar    1  LIG1        0.0251
      2 C           1.4592    0.0309    0.0002 C.ar    1  LIG1       -0.0333
      3 C          -0.6045    1.2792    0.0002 C.ar    1  LIG1       -0.0408
      4 C           2.1849    1.2200   -0.0004 C.ar    1  LIG1       -0.0153
      5 H           1.9850   -0.9213    0.0004 H       1  LIG1        0.0642
      6 C           0.1195    2.4666   -0.0004 C.ar    1  LIG1       -0.0565
      7 C           1.5181    2.4458   -0.0008 C.ar    1  LIG1       -0.0429
      8 H          -0.4090    3.4165   -0.0003 H       1  LIG1        0.0621
      9 H          -1.9035    1.3287    0.0016 H       1  LIG1        0.0636
     10 N          -0.5709   -1.1108    0.0005 N.pl3   1  LIG1       -0.3579
     11 H          -1.4474   -1.0131   -0.4708 H       1  LIG1        0.1423
     12 H          -0.0133   -1.7941   -0.4709 H       1  LIG1        0.1423
     13 C           2.1897    3.5592   -0.0012 C.3     1  LIG1       -0.0391
     14 H           1.6260    4.3160    0.5031 H       1  LIG1        0.0278
     15 H           2.3738    3.8644   -1.0102 H       1  LIG1        0.0278
     16 H           3.1221    3.4135    0.5030 H       1  LIG1        0.0278
     17 C           4.1689    0.2329    0.7792 C.3     1  LIG1        0.0689
     18 C           3.4844    1.1831   -0.0005 C.2     1  LIG1       -0.0165
     19 C           4.2314    2.0781   -0.7686 C.2     1  LIG1       -0.0369
     20 C           5.6244    1.9949   -0.7322 C.2     1  LIG1        0.0750
     21 C           6.2173    1.0100    0.0790 C.2     1  LIG1        0.0725
     22 N           5.5119    0.1385    0.8261 N.pl3   1  LIG1       -0.3322
     23 H           3.7316    2.8351   -1.3895 H       1  LIG1        0.0634
     24 H           3.5173   -0.6216    1.5108 H       1  LIG1        0.0569
     25 N           7.0172    3.5201   -2.0435 N.1     1  LIG1       -0.1908
     26 C           6.3645    2.8053   -1.4289 C.1     1  LIG1        0.1011
     27 C           7.5103    0.8929    0.1460 C.ar    1  LIG1        0.1047
     28 C           8.2853    0.1224    0.9545 C.ar    1  LIG1        0.1507
     29 C           9.6511    0.3794    0.6092 C.ar    1  LIG1        0.0202
     30 C           9.6505    1.2944   -0.3962 C.ar    1  LIG1        0.0891
     31 N           8.3419    1.6118   -0.6826 N.ar    1  LIG1       -0.3476
     32 H           8.0447    2.2571   -1.3778 H       1  LIG1        0.1661
     33 O           7.8611   -0.6949    1.8722 O.3     1  LIG1       -0.4861
     34 C           6.5089   -0.3740    2.2090 C.3     1  LIG1        0.1236
     35 H           6.1600   -1.0470    2.9642 H       1  LIG1        0.0731
     36 H           6.4614    0.6298    2.5764 H       1  LIG1        0.0731
     37 H           5.8933   -0.4647    1.3386 H       1  LIG1        0.1468
     38 C          10.7007   -0.1610    1.1542 C.3     1  LIG1       -0.0341
     39 H          11.2006    0.5643    1.7617 H       1  LIG1        0.0279
     40 H          11.3646   -0.5027    0.3877 H       1  LIG1        0.0279
     41 H          10.4008   -0.9892    1.7616 H       1  LIG1        0.0279
     42 C          10.6389    1.8396   -1.0411 C.ar    1  LIG1        0.1524
     43 C          10.8605    3.0539   -1.6571 C.ar    1  LIG1        0.0010
     44 C          12.2046    3.0074   -2.1940 C.ar    1  LIG1        0.0630
     45 C          12.7154    1.7673   -1.8701 C.ar    1  LIG1        0.1080
     46 O          11.7688    1.0290   -1.1591 O.2     1  LIG1       -0.4602
     47 H          13.8411    1.1485   -2.0694 H       1  LIG1        0.1042
     48 H          10.0417    4.0591   -1.7520 H       1  LIG1        0.0668
     49 C          12.7918    3.9638   -2.8502 C.1     1  LIG1       -0.0665
     50 C          13.3344    4.8475   -3.4565 C.1     1  LIG1       -0.1138
     51 H          13.8177    5.6346   -3.9965 H       1  LIG1        0.1232
@<TRIPOS>BOND
     1    51    50    1
     2    50    49    3
     3    49    44    1
     4    44    45   ar
     5    44    43   ar
     6    47    45    1
     7    25    26    3
     8    45    46   ar
     9    48    43    1
    10    43    42   ar
    11    26    20    1
    12    23    19    1
    13    32    31    1
    14    46    42   ar
    15    42    30    1
    16    15    13    1
    17    19    20    1
    18    19    18    2
    19    20    21    2
    20    31    30   ar
    21    31    27   ar
    22    12    10    1
    23    11    10    1
    24    30    29   ar
    25    13     7    1
    26    13    16    1
    27    13    14    1
    28     7     4   ar
    29     7     6   ar
    30    18     4    1
    31    18    17    1
    32     4     2   ar
    33     6     8    1
    34     6     3   ar
    35     2     1   ar
    36     2     5    1
    37     3     1   ar
    38     3     9    1
    39     1    10    1
    40    21    27    1
    41    21    22    1
    42    27    28   ar
    43    40    38    1
    44    29    28   ar
    45    29    38    1
    46    17    22    1
    47    17    24    1
    48    22    37    1
    49    28    33    1
    50    38    41    1
    51    38    39    1
    52    33    34    1
    53    34    36    1
    54    34    35    1
