@<TRIPOS>MOLECULE
mol_data/noopt/geoms/mol2/4hi6aa13df-6ii-13dd6ha12if-4ae-.out
 95 102 0 0 0
SMALL
GASTEIGER

@<TRIPOS>ATOM
      1 C           0.0509    0.0309    0.0002 C.ar    1  LIG1        0.0251
      2 C           1.4592    0.0309    0.0002 C.ar    1  LIG1       -0.0330
      3 C          -0.6045    1.2792    0.0002 C.ar    1  LIG1       -0.0408
      4 C           2.1849    1.2200   -0.0004 C.ar    1  LIG1       -0.0118
      5 H           1.9850   -0.9213    0.0004 H       1  LIG1        0.0642
      6 C           0.1195    2.4666   -0.0004 C.ar    1  LIG1       -0.0565
      7 C           1.5181    2.4458   -0.0008 C.ar    1  LIG1       -0.0426
      8 H          -0.4090    3.4165   -0.0003 H       1  LIG1        0.0621
      9 H          -1.9035    1.3287    0.0016 H       1  LIG1        0.0636
     10 N          -0.5709   -1.1108    0.0005 N.pl3   1  LIG1       -0.3579
     11 H          -1.4474   -1.0131   -0.4708 H       1  LIG1        0.1423
     12 H          -0.0133   -1.7941   -0.4709 H       1  LIG1        0.1423
     13 C           2.1897    3.5592   -0.0012 C.3     1  LIG1       -0.0391
     14 H           1.6260    4.3160    0.5031 H       1  LIG1        0.0278
     15 H           2.3738    3.8644   -1.0102 H       1  LIG1        0.0278
     16 H           3.1221    3.4135    0.5030 H       1  LIG1        0.0278
     17 C           4.2297    2.3764   -0.0004 C.ar    1  LIG1        0.0360
     18 C           3.4844    1.1831   -0.0005 C.ar    1  LIG1        0.0006
     19 C           4.1715   -0.0322   -0.0004 C.ar    1  LIG1       -0.0505
     20 C           5.5673   -0.0149   -0.0004 C.ar    1  LIG1       -0.0336
     21 C           6.2235    1.2297   -0.0005 C.ar    1  LIG1        0.0885
     22 N           5.5764    2.4115   -0.0004 N.ar    1  LIG1       -0.2529
     23 H           3.6233   -0.9849   -0.0015 H       1  LIG1        0.0625
     24 H           3.6352    3.5325   -0.0004 H       1  LIG1        0.0836
     25 H           6.2531   -1.1193   -0.0005 H       1  LIG1        0.0640
     26 C           7.5217    1.2976   -0.0004 C.ar    1  LIG1        0.0866
     27 C           8.4565    0.3108    0.0159 C.ar    1  LIG1        0.1204
     28 C           9.7428    0.9400    0.0083 C.ar    1  LIG1        0.1601
     29 C           9.5376    2.2836   -0.0140 C.ar    1  LIG1        0.0920
     30 N           8.1792    2.5070   -0.0190 N.ar    1  LIG1       -0.3490
     31 H           7.7424    3.3998   -0.0343 H       1  LIG1        0.1661
     32 N           8.0151   -2.0954    0.0543 N.1     1  LIG1       -0.1907
     33 C           8.2220   -0.9677    0.0363 C.1     1  LIG1        0.1050
     34 O          10.8963    0.3403    0.0201 O.3     1  LIG1       -0.5034
     35 H          11.5980    0.9955    0.0230 H       1  LIG1        0.2923
     36 C           9.9351    4.5984   -0.0574 C.ar    1  LIG1        0.0482
     37 C          10.3880    3.2667   -0.0285 C.ar    1  LIG1        0.0232
     38 C          11.7639    3.0306   -0.0155 C.ar    1  LIG1       -0.0458
     39 C          12.6333    4.1226   -0.0319 C.ar    1  LIG1       -0.0224
     40 C          12.0843    5.4177   -0.0608 C.ar    1  LIG1        0.0916
     41 N          10.7597    5.6637   -0.0735 N.ar    1  LIG1       -0.2495
     42 H          12.1551    2.0036    0.0060 H       1  LIG1        0.0628
     43 C           8.6633    4.8690   -0.0703 C.3     1  LIG1       -0.0217
     44 H           8.1278    4.0897    0.4305 H       1  LIG1        0.0293
     45 H           8.3243    4.9410   -1.0827 H       1  LIG1        0.0293
     46 H           8.4914    5.7988    0.4305 H       1  LIG1        0.0293
     47 C          13.9228    3.9554   -0.0209 C.3     1  LIG1       -0.0376
     48 H          14.3846    4.7765    0.4865 H       1  LIG1        0.0278
     49 H          14.2849    3.9086   -1.0268 H       1  LIG1        0.0278
     50 H          14.1600    3.0437    0.4864 H       1  LIG1        0.0278
     51 C          12.8528    6.4661   -0.0768 C.ar    1  LIG1        0.0845
     52 C          14.2085    6.5660   -0.0715 C.ar    1  LIG1        0.0964
     53 C          14.5347    7.9602   -0.0954 C.ar    1  LIG1        0.0951
     54 C          13.3639    8.6509   -0.1161 C.ar    1  LIG1        0.0691
     55 N          12.3317    7.7400   -0.1044 N.ar    1  LIG1       -0.3508
     56 H          11.3639    7.9663   -0.1148 H       1  LIG1        0.1660
     57 N          15.7933    4.7027   -0.0261 N.1     1  LIG1       -0.1908
     58 C          15.0506    5.5760   -0.0474 C.1     1  LIG1        0.1026
     59 N          16.7818    8.9279   -0.0993 N.1     1  LIG1       -0.1908
     60 C          15.7287    8.4744   -0.0975 C.1     1  LIG1        0.1026
     61 C          11.8220   10.4227   -0.1555 C.ar    1  LIG1        0.1261
     62 C          13.1402    9.9312   -0.1417 C.ar    1  LIG1        0.0391
     63 C          14.1935   10.8474   -0.1557 C.ar    1  LIG1       -0.0472
     64 C          13.8974   12.2113   -0.1831 C.ar    1  LIG1       -0.0319
     65 C          12.5468   12.6052   -0.1954 C.ar    1  LIG1        0.1085
     66 N          11.5183   11.7349   -0.1819 N.ar    1  LIG1       -0.2287
     67 H          15.2366   10.5009   -0.1466 H       1  LIG1        0.0626
     68 N          10.8082    9.6090   -0.1432 N.pl3   1  LIG1       -0.3426
     69 H          10.0337   10.0344   -0.6115 H       1  LIG1        0.1437
     70 H          11.0557    8.7609   -0.6115 H       1  LIG1        0.1437
     71 H          14.8423   13.1040   -0.1972 H       1  LIG1        0.0640
     72 C          12.2206   13.8633   -0.2207 C.ar    1  LIG1        0.1604
     73 C          12.9102   15.0581   -0.2250 C.ar    1  LIG1        0.0390
     74 C          11.9163   16.1106   -0.2604 C.ar    1  LIG1        0.1662
     75 C          10.6847   15.4889   -0.2754 C.ar    1  LIG1        0.1772
     76 O          10.8461   14.1031   -0.2516 O.2     1  LIG1       -0.4492
     77 C          14.1984   15.2335   -0.2022 C.3     1  LIG1       -0.0325
     78 H          14.4251   16.1461    0.3084 H       1  LIG1        0.0280
     79 H          14.5694   15.2841   -1.2046 H       1  LIG1        0.0280
     80 H          14.6609   14.4147    0.3083 H       1  LIG1        0.0280
     81 O          12.1643   17.3867   -0.2747 O.3     1  LIG1       -0.5030
     82 H          11.3370   17.8738   -0.2782 H       1  LIG1        0.2923
     83 C           9.1511   17.2641   -0.3001 C.ar    1  LIG1       -0.0509
     84 C           7.7950   17.6426   -0.3323 C.ar    1  LIG1       -0.0599
     85 C           9.4472   15.8857   -0.3058 C.ar    1  LIG1        0.0221
     86 C           6.7771   16.6924   -0.3693 C.ar    1  LIG1       -0.0463
     87 H           7.5443   18.7010   -0.3284 H       1  LIG1        0.0618
     88 C           8.4313   14.9366   -0.3427 C.ar    1  LIG1       -0.0355
     89 C           7.0901   15.3325   -0.3747 C.ar    1  LIG1        0.0254
     90 H           8.6852   13.8796   -0.3462 H       1  LIG1        0.0637
     91 H           5.5356   17.0771   -0.3985 H       1  LIG1        0.0630
     92 H          10.0563   18.1966   -0.2666 H       1  LIG1        0.0625
     93 C           6.1447   14.4408   -0.4090 C.1     1  LIG1       -0.0696
     94 C           5.2712   13.6169   -0.4406 C.1     1  LIG1       -0.1139
     95 H           4.4931   12.8830   -0.4688 H       1  LIG1        0.1232
@<TRIPOS>BOND
     1    79    77    1
     2    45    43    1
     3    49    47    1
     4    15    13    1
     5    70    68    1
     6    69    68    1
     7    12    10    1
     8    11    10    1
     9    95    94    1
    10    94    93    3
    11    93    89    1
    12    91    86    1
    13    89    86   ar
    14    89    88   ar
    15    86    84   ar
    16    90    88    1
    17    88    85   ar
    18    84    87    1
    19    84    83   ar
    20    85    83   ar
    21    85    75    1
    22    83    92    1
    23    82    81    1
    24    75    74   ar
    25    75    76   ar
    26    81    74    1
    27    74    73   ar
    28    76    72   ar
    29    73    72   ar
    30    73    77    1
    31    72    65    1
    32    77    80    1
    33    77    78    1
    34    71    64    1
    35    65    64   ar
    36    65    66   ar
    37    64    63   ar
    38    66    61   ar
    39    63    67    1
    40    63    62   ar
    41    61    68    1
    42    61    62   ar
    43    62    54    1
    44    54    55   ar
    45    54    53   ar
    46    56    55    1
    47    55    51   ar
    48    59    60    3
    49    60    53    1
    50    53    52   ar
    51    51    52   ar
    52    51    40    1
    53    41    40   ar
    54    41    36   ar
    55    52    58    1
    56    43    36    1
    57    43    46    1
    58    43    44    1
    59    40    39   ar
    60    36    37   ar
    61    58    57    3
    62    31    30    1
    63    39    47    1
    64    39    38   ar
    65    37    38   ar
    66    37    29    1
    67    47    50    1
    68    47    48    1
    69    30    29   ar
    70    30    26   ar
    71    38    42    1
    72    29    28   ar
    73    23    19    1
    74    13     7    1
    75    13    16    1
    76    13    14    1
    77     7     4   ar
    78     7     6   ar
    79    18     4    1
    80    18    17   ar
    81    18    19   ar
    82    21    22   ar
    83    21    26    1
    84    21    20   ar
    85    25    20    1
    86     4     2   ar
    87     6     8    1
    88     6     3   ar
    89    17    24    1
    90    17    22   ar
    91    19    20   ar
    92    26    27   ar
    93     1     2   ar
    94     1     3   ar
    95     1    10    1
    96     2     5    1
    97     3     9    1
    98    28    27   ar
    99    28    34    1
   100    27    33    1
   101    34    35    1
   102    33    32    3
