@<TRIPOS>MOLECULE
mol_data/noopt/geoms/mol2/4hl12id(100)12al(200)6ea(10).out
 51 54 0 0 0
SMALL
GASTEIGER

@<TRIPOS>ATOM
      1 C           0.0509    0.0309    0.0002 C.ar    1  LIG1        0.0254
      2 C           1.4592    0.0309    0.0002 C.ar    1  LIG1       -0.0268
      3 C          -0.6045    1.2792    0.0002 C.ar    1  LIG1       -0.0376
      4 C           2.1849    1.2200   -0.0004 C.ar    1  LIG1        0.0609
      5 H           1.9850   -0.9213    0.0004 H       1  LIG1        0.0644
      6 C           0.1195    2.4666   -0.0004 C.ar    1  LIG1       -0.0175
      7 C           1.5181    2.4458   -0.0008 C.ar    1  LIG1        0.1308
      8 H          -0.4090    3.4165   -0.0003 H       1  LIG1        0.0655
      9 H          -1.9035    1.3287    0.0016 H       1  LIG1        0.0637
     10 N          -0.5709   -1.1108    0.0005 N.pl3   1  LIG1       -0.3579
     11 H          -1.4474   -1.0131   -0.4708 H       1  LIG1        0.1423
     12 H          -0.0133   -1.7941   -0.4709 H       1  LIG1        0.1423
     13 O           2.1896    3.5590   -0.0012 O.3     1  LIG1       -0.4944
     14 C           3.5904    3.2714   -0.0014 C.3     1  LIG1        0.0788
     15 H           4.1427    4.1879   -0.0019 H       1  LIG1        0.0660
     16 H           3.8386    2.7059    0.8724 H       1  LIG1        0.0660
     17 H           3.8381    2.7052   -0.8749 H       1  LIG1        0.0660
     18 C           3.4844    1.1831   -0.0005 C.ar    1  LIG1        0.1436
     19 C           4.4728    1.3460    0.9479 C.ar    1  LIG1        0.0135
     20 C           5.7371    1.1723    0.2634 C.ar    1  LIG1        0.1040
     21 C           5.4371    0.9145   -1.0584 C.ar    1  LIG1        0.1882
     22 O           4.0545    0.9159   -1.2460 O.2     1  LIG1       -0.4500
     23 C           4.3264    1.6052    2.2136 C.3     1  LIG1       -0.0349
     24 H           3.7672    0.8189    2.6763 H       1  LIG1        0.0279
     25 H           3.8030    2.5312    2.3299 H       1  LIG1        0.0279
     26 H           5.2884    1.6786    2.6763 H       1  LIG1        0.0279
     27 N           7.9499    1.3176    1.2969 N.1     1  LIG1       -0.1907
     28 C           6.9128    1.2495    0.8126 C.1     1  LIG1        0.1034
     29 C           6.1257    0.6781   -2.1354 C.ar    1  LIG1        0.1755
     30 C           6.7156    1.4502   -3.1147 C.ar    1  LIG1        0.0298
     31 C           7.3378    0.5333   -4.0470 C.ar    1  LIG1        0.1669
     32 C           7.0868   -0.7387   -3.5753 C.ar    1  LIG1        0.1789
     33 O           6.3411   -0.6756   -2.3977 O.2     1  LIG1       -0.4478
     34 H           6.7262    2.7468   -3.2069 H       1  LIG1        0.0693
     35 O           7.9992    0.8707   -5.1142 O.3     1  LIG1       -0.4848
     36 C           8.8545   -0.2063   -5.5060 C.3     1  LIG1        0.1237
     37 H           9.3985    0.0717   -6.3844 H       1  LIG1        0.0731
     38 H           9.5414   -0.4224   -4.7145 H       1  LIG1        0.0373
     39 H           8.2636   -1.0742   -5.7122 H       1  LIG1        0.0731
     40 C           8.6829   -2.2641   -4.3779 C.ar    1  LIG1        0.0560
     41 C           7.3766   -1.9448   -3.9643 C.ar    1  LIG1        0.0425
     42 C           6.4074   -2.9495   -3.9821 C.ar    1  LIG1       -0.0478
     43 C           6.7722   -4.2276   -4.4088 C.ar    1  LIG1       -0.0429
     44 C           8.1043   -4.4490   -4.8036 C.ar    1  LIG1        0.0279
     45 N           9.0521   -3.4915   -4.7925 N.ar    1  LIG1       -0.2589
     46 H           5.3759   -2.7374   -3.6671 H       1  LIG1        0.0626
     47 H           8.4922   -5.6219   -5.2085 H       1  LIG1        0.0829
     48 C           9.6197   -1.3627   -4.3788 C.3     1  LIG1        0.0139
     49 C          10.4853   -0.5299   -4.3796 C.3     1  LIG1       -0.0247
     50 H          11.2564    0.2119   -4.3804 H       1  LIG1        0.0313
     51 H           5.9066   -5.1969   -4.4438 H       1  LIG1        0.0633
@<TRIPOS>BOND
     1    37    36    1
     2    39    36    1
     3    36    35    1
     4    47    44    1
     5    35    31    1
     6    44    45   ar
     7    44    43   ar
     8    45    40   ar
     9    38    48    1
    10    51    43    1
    11    43    42   ar
    12    50    49    1
    13    49    48    1
    14    48    40    1
    15    40    41   ar
    16    31    32   ar
    17    31    30   ar
    18    42    41   ar
    19    42    46    1
    20    41    32    1
    21    32    33   ar
    22    34    30    1
    23    30    29   ar
    24    33    29   ar
    25    29    21    1
    26    22    21   ar
    27    22    18   ar
    28    21    20   ar
    29    17    14    1
    30    12    10    1
    31    11    10    1
    32    15    14    1
    33    14    13    1
    34    14    16    1
    35    13     7    1
    36     7     6   ar
    37     7     4   ar
    38    18     4    1
    39    18    19   ar
    40     6     8    1
    41     6     3   ar
    42     4     2   ar
    43     1     3   ar
    44     1     2   ar
    45     1    10    1
    46     3     9    1
    47     2     5    1
    48    20    28    1
    49    20    19   ar
    50    28    27    3
    51    19    23    1
    52    23    25    1
    53    23    26    1
    54    23    24    1
