@<TRIPOS>MOLECULE
mol_data/noopt/geoms/mol2/4ia13hf-12ha6la.out
 48 51 0 0 0
SMALL
GASTEIGER

@<TRIPOS>ATOM
      1 C           0.0509    0.0309    0.0002 C.ar    1  LIG1       -0.0498
      2 C           1.4592    0.0309    0.0002 C.ar    1  LIG1       -0.0497
      3 C          -0.6045    1.2792    0.0002 C.ar    1  LIG1       -0.0588
      4 C           2.1849    1.2200   -0.0004 C.ar    1  LIG1        0.0005
      5 H           1.9850   -0.9213    0.0004 H       1  LIG1        0.0627
      6 C           0.1195    2.4666   -0.0004 C.ar    1  LIG1       -0.0609
      7 C           1.5181    2.4458   -0.0008 C.ar    1  LIG1       -0.0526
      8 H          -0.4090    3.4165   -0.0003 H       1  LIG1        0.0618
      9 H          -1.9035    1.3287    0.0016 H       1  LIG1        0.0620
     10 C          -0.5710   -1.1111    0.0005 C.3     1  LIG1       -0.0397
     11 H           0.0257   -1.8420    0.5050 H       1  LIG1        0.0278
     12 H          -0.7416   -1.4245   -1.0083 H       1  LIG1        0.0278
     13 H          -1.5088   -1.0063    0.5049 H       1  LIG1        0.0278
     14 H           2.1896    3.5590   -0.0012 H       1  LIG1        0.0624
     15 C           3.4844    1.1831   -0.0005 C.ar    1  LIG1        0.0716
     16 C           4.3366    0.1241    0.0157 C.ar    1  LIG1        0.0930
     17 C           5.6695    0.6477    0.0079 C.ar    1  LIG1        0.1666
     18 C           5.5731    2.0035   -0.0145 C.ar    1  LIG1        0.1282
     19 N           4.2371    2.3356   -0.0192 N.ar    1  LIG1       -0.3473
     20 H           3.8736    3.2606   -0.0344 H       1  LIG1        0.1662
     21 N           3.9999   -1.1313    0.0361 N.pl3   1  LIG1       -0.3535
     22 H           3.1230   -1.2488   -0.4300 H       1  LIG1        0.1425
     23 H           4.7002   -1.6719   -0.4301 H       1  LIG1        0.1425
     24 O           6.7709   -0.0429    0.0195 O.3     1  LIG1       -0.5030
     25 H           7.5230    0.5536    0.0224 H       1  LIG1        0.2923
     26 C           6.5000    2.9149   -0.0291 C.ar    1  LIG1        0.1759
     27 C           7.8795    2.9147   -0.0253 C.ar    1  LIG1        0.0732
     28 C           8.2945    4.3018   -0.0502 C.ar    1  LIG1        0.0058
     29 C           7.1406    5.0580   -0.0676 C.ar    1  LIG1        0.1427
     30 O           6.0209    4.2255   -0.0552 O.2     1  LIG1       -0.4512
     31 N           8.6750    1.8867   -0.0037 N.pl3   1  LIG1       -0.3550
     32 H           8.2379    1.1173   -0.4696 H       1  LIG1        0.1424
     33 H           9.5294    2.1166   -0.4696 H       1  LIG1        0.1424
     34 H           9.5238    4.7249   -0.0548 H       1  LIG1        0.0674
     35 C           5.5291    6.7668   -0.1055 C.ar    1  LIG1        0.2254
     36 C           6.8659    6.3284   -0.0922 C.ar    1  LIG1        0.0788
     37 C           7.8818    7.2859   -0.1057 C.ar    1  LIG1       -0.0445
     38 C           7.5315    8.6369   -0.1320 C.ar    1  LIG1       -0.0427
     39 C           6.1661    8.9765   -0.1437 C.ar    1  LIG1        0.0314
     40 N           5.1732    8.0659   -0.1308 N.ar    1  LIG1       -0.2207
     41 H           8.9379    6.9813   -0.0970 H       1  LIG1        0.0627
     42 H           5.7900   10.2206   -0.1681 H       1  LIG1        0.0831
     43 O           4.5486    5.9133   -0.0937 O.3     1  LIG1       -0.4792
     44 C           3.3035    6.6168   -0.0894 C.3     1  LIG1        0.0804
     45 H           2.4968    5.9139   -0.0799 H       1  LIG1        0.0660
     46 H           3.2470    7.2365    0.7811 H       1  LIG1        0.0660
     47 H           3.2352    7.2262   -0.9662 H       1  LIG1        0.0660
     48 H           8.4400    9.5666   -0.1455 H       1  LIG1        0.0633
@<TRIPOS>BOND
     1    12    10    1
     2    47    44    1
     3    33    31    1
     4    32    31    1
     5    23    21    1
     6    22    21    1
     7    42    39    1
     8    48    38    1
     9    39    38   ar
    10    39    40   ar
    11    38    37   ar
    12    40    35   ar
    13    37    41    1
    14    37    36   ar
    15    35    43    1
    16    35    36   ar
    17    43    44    1
    18    36    29    1
    19    44    45    1
    20    44    46    1
    21    29    30   ar
    22    29    28   ar
    23    30    26   ar
    24    34    28    1
    25    28    27   ar
    26    20    19    1
    27    26    27   ar
    28    26    18    1
    29    27    31    1
    30    19    18   ar
    31    19    15   ar
    32    18    17   ar
    33    14     7    1
    34     7     6   ar
    35     7     4   ar
    36    15     4    1
    37    15    16   ar
    38     6     8    1
    39     6     3   ar
    40     4     2   ar
    41     1     3   ar
    42     1     2   ar
    43     1    10    1
    44     3     9    1
    45     2     5    1
    46    10    13    1
    47    10    11    1
    48    17    16   ar
    49    17    24    1
    50    16    21    1
    51    24    25    1
