@<TRIPOS>MOLECULE
mol_data/noopt/geoms/mol2/4ia13ee-6fd-12hh.out
 49 52 0 0 0
SMALL
GASTEIGER

@<TRIPOS>ATOM
      1 C           0.0509    0.0309    0.0002 C.ar    1  LIG1       -0.0498
      2 C           1.4592    0.0309    0.0002 C.ar    1  LIG1       -0.0497
      3 C          -0.6045    1.2792    0.0002 C.ar    1  LIG1       -0.0588
      4 C           2.1849    1.2200   -0.0004 C.ar    1  LIG1       -0.0002
      5 H           1.9850   -0.9213    0.0004 H       1  LIG1        0.0627
      6 C           0.1195    2.4666   -0.0004 C.ar    1  LIG1       -0.0609
      7 C           1.5181    2.4458   -0.0008 C.ar    1  LIG1       -0.0526
      8 H          -0.4090    3.4165   -0.0003 H       1  LIG1        0.0618
      9 H          -1.9035    1.3287    0.0016 H       1  LIG1        0.0620
     10 C          -0.5710   -1.1111    0.0005 C.3     1  LIG1       -0.0397
     11 H           0.0257   -1.8420    0.5050 H       1  LIG1        0.0278
     12 H          -0.7416   -1.4245   -1.0083 H       1  LIG1        0.0278
     13 H          -1.5088   -1.0063    0.5049 H       1  LIG1        0.0278
     14 H           2.1896    3.5590   -0.0012 H       1  LIG1        0.0624
     15 C           3.4844    1.1831   -0.0005 C.ar    1  LIG1        0.0637
     16 C           4.3366    0.1241    0.0157 C.ar    1  LIG1        0.0659
     17 C           5.6695    0.6477    0.0079 C.ar    1  LIG1        0.0660
     18 C           5.5731    2.0035   -0.0145 C.ar    1  LIG1        0.0689
     19 N           4.2371    2.3356   -0.0192 N.ar    1  LIG1       -0.3521
     20 H           3.8736    3.2606   -0.0344 H       1  LIG1        0.1660
     21 C           3.9999   -1.1313    0.0361 C.1     1  LIG1       -0.0663
     22 C           3.6887   -2.2914    0.0550 C.1     1  LIG1       -0.1138
     23 H           3.4116   -3.3247    0.0718 H       1  LIG1        0.1232
     24 C           6.7708   -0.0429    0.0195 C.1     1  LIG1       -0.0663
     25 C           7.7885   -0.6810    0.0302 C.1     1  LIG1       -0.1138
     26 H           8.6950   -1.2494    0.0398 H       1  LIG1        0.1232
     27 C           6.1558    4.2788   -0.0580 C.ar    1  LIG1        0.2224
     28 C           6.5000    2.9149   -0.0291 C.ar    1  LIG1        0.0621
     29 C           7.8524    2.5687   -0.0161 C.ar    1  LIG1       -0.0279
     30 C           8.8069    3.5872   -0.0327 C.ar    1  LIG1        0.0816
     31 C           8.3640    4.9223   -0.0617 C.ar    1  LIG1        0.1290
     32 N           7.0635    5.2741   -0.0743 N.ar    1  LIG1       -0.2080
     33 H           8.1596    1.5135    0.0055 H       1  LIG1        0.0639
     34 O           4.9102    4.6508   -0.0709 O.3     1  LIG1       -0.4919
     35 H           4.3442    3.8754   -0.0741 H       1  LIG1        0.2937
     36 N          11.1999    3.0782   -0.0123 N.1     1  LIG1       -0.1908
     37 C          10.0784    3.3167   -0.0218 C.1     1  LIG1        0.1014
     38 C           9.2144    5.9054   -0.0778 C.ar    1  LIG1        0.1767
     39 C          10.5895    6.0163   -0.0753 C.ar    1  LIG1        0.0935
     40 C          10.8914    7.4323   -0.1017 C.ar    1  LIG1        0.0845
     41 C           9.6803    8.0930   -0.1188 C.ar    1  LIG1        0.1151
     42 O           8.6313    7.1730   -0.1046 O.2     1  LIG1       -0.4576
     43 H           9.3042    9.3371   -0.1442 H       1  LIG1        0.1049
     44 N          11.4652    5.0557   -0.0535 N.pl3   1  LIG1       -0.3536
     45 H          11.0916    4.2535   -0.5193 H       1  LIG1        0.1425
     46 H          12.2984    5.3537   -0.5193 H       1  LIG1        0.1425
     47 N          12.0826    7.9530   -0.1077 N.pl3   1  LIG1       -0.3541
     48 H          12.7130    7.3374   -0.5807 H       1  LIG1        0.1425
     49 H          12.0590    8.8337   -0.5807 H       1  LIG1        0.1425
@<TRIPOS>BOND
     1    12    10    1
     2    49    47    1
     3    48    47    1
     4    46    44    1
     5    45    44    1
     6    43    41    1
     7    41    42   ar
     8    41    40   ar
     9    47    40    1
    10    42    38   ar
    11    40    39   ar
    12    38    39   ar
    13    38    31    1
    14    39    44    1
    15    32    31   ar
    16    32    27   ar
    17    35    34    1
    18    34    27    1
    19    31    30   ar
    20    27    28   ar
    21    20    19    1
    22    30    37    1
    23    30    29   ar
    24    28    29   ar
    25    28    18    1
    26    37    36    3
    27    19    18   ar
    28    19    15   ar
    29    29    33    1
    30    18    17   ar
    31    14     7    1
    32     7     6   ar
    33     7     4   ar
    34    15     4    1
    35    15    16   ar
    36     6     8    1
    37     6     3   ar
    38     4     2   ar
    39     1     3   ar
    40     1     2   ar
    41     1    10    1
    42     3     9    1
    43     2     5    1
    44    10    13    1
    45    10    11    1
    46    17    16   ar
    47    17    24    1
    48    16    21    1
    49    24    25    3
    50    25    26    1
    51    21    22    3
    52    22    23    1
