@<TRIPOS>MOLECULE
mol_data/noopt/geoms/mol2/4ia13di-4ha13dl.out
 52 54 0 0 0
SMALL
GASTEIGER

@<TRIPOS>ATOM
      1 C           0.0509    0.0309    0.0002 C.ar    1  LIG1       -0.0498
      2 C           1.4592    0.0309    0.0002 C.ar    1  LIG1       -0.0497
      3 C          -0.6045    1.2792    0.0002 C.ar    1  LIG1       -0.0588
      4 C           2.1849    1.2200   -0.0004 C.ar    1  LIG1       -0.0002
      5 H           1.9850   -0.9213    0.0004 H       1  LIG1        0.0627
      6 C           0.1195    2.4666   -0.0004 C.ar    1  LIG1       -0.0609
      7 C           1.5181    2.4458   -0.0008 C.ar    1  LIG1       -0.0526
      8 H          -0.4090    3.4165   -0.0003 H       1  LIG1        0.0618
      9 H          -1.9035    1.3287    0.0016 H       1  LIG1        0.0620
     10 C          -0.5710   -1.1111    0.0005 C.3     1  LIG1       -0.0397
     11 H           0.0257   -1.8420    0.5050 H       1  LIG1        0.0278
     12 H          -0.7416   -1.4245   -1.0083 H       1  LIG1        0.0278
     13 H          -1.5088   -1.0063    0.5049 H       1  LIG1        0.0278
     14 H           2.1896    3.5590   -0.0012 H       1  LIG1        0.0624
     15 C           3.4844    1.1831   -0.0005 C.ar    1  LIG1        0.0651
     16 C           4.3366    0.1241    0.0157 C.ar    1  LIG1        0.0853
     17 C           5.6695    0.6477    0.0079 C.ar    1  LIG1        0.0287
     18 C           5.5731    2.0035   -0.0145 C.ar    1  LIG1        0.0579
     19 N           4.2371    2.3356   -0.0192 N.ar    1  LIG1       -0.3526
     20 H           3.8736    3.2606   -0.0344 H       1  LIG1        0.1660
     21 N           3.7029   -2.2386    0.0541 N.1     1  LIG1       -0.1908
     22 C           3.9999   -1.1313    0.0361 C.1     1  LIG1        0.1019
     23 C           6.7711   -0.0430    0.0195 C.3     2  LIG2       -0.0681
     24 H           7.5335    0.5100    0.5271 H       1  LIG1        0.0227
     25 H           7.0810   -0.2373   -0.9861 H       1  LIG1        0.0227
     26 H           6.6053   -0.9703    0.5270 H       1  LIG1        0.0227
     27 C           7.8579    2.5358   -0.0362 C.ar    1  LIG1        0.0344
     28 C           8.8237    3.5606   -0.0504 C.ar    1  LIG1       -0.0313
     29 C           6.4999    2.9149   -0.0291 C.ar    1  LIG1        0.0196
     30 C           8.4559    4.9043   -0.0579 C.ar    1  LIG1        0.0014
     31 H           9.8772    3.2903   -0.0559 H       1  LIG1        0.0643
     32 C           6.1323    4.2561   -0.0365 C.ar    1  LIG1       -0.0502
     33 C           7.1065    5.2597   -0.0511 C.ar    1  LIG1       -0.0519
     34 H           5.0785    4.5229   -0.0307 H       1  LIG1        0.0625
     35 N           8.2624    1.3003   -0.0300 N.pl3   1  LIG1       -0.3574
     36 H           7.5908    0.7274   -0.4999 H       1  LIG1        0.1423
     37 H           9.1427    1.2355   -0.4999 H       1  LIG1        0.1423
     38 H           6.7569    6.5117   -0.0579 H       1  LIG1        0.0624
     39 C           9.3739    5.8247   -0.0712 C.ar    1  LIG1        0.0678
     40 C          10.7292    5.7187   -0.0640 C.ar    1  LIG1        0.1185
     41 C          11.2621    7.0477   -0.0851 C.ar    1  LIG1        0.1552
     42 C          10.2091    7.9073   -0.1061 C.ar    1  LIG1        0.0457
     43 N           9.0512    7.1627   -0.0972 N.ar    1  LIG1       -0.3565
     44 H           8.1286    7.5325   -0.1085 H       1  LIG1        0.1655
     45 H          10.1813    9.2067   -0.1298 H       1  LIG1        0.0845
     46 N          12.0144    3.6374   -0.0198 N.1     1  LIG1       -0.1907
     47 C          11.4121    4.6128   -0.0405 C.1     1  LIG1        0.1050
     48 O          12.5201    7.3757   -0.0849 O.3     1  LIG1       -0.4923
     49 C          13.3220    6.1917   -0.0848 C.3     1  LIG1        0.0789
     50 H          14.3573    6.4621   -0.0848 H       1  LIG1        0.0660
     51 H          13.1044    5.6135    0.7889 H       1  LIG1        0.0660
     52 H          13.1045    5.6135   -0.9584 H       1  LIG1        0.0660
@<TRIPOS>BOND
     1    12    10    1
     2    25    23    1
     3    52    49    1
     4    37    35    1
     5    36    35    1
     6    45    42    1
     7    44    43    1
     8    42    43   ar
     9    42    41   ar
    10    43    39   ar
    11    41    48    1
    12    41    40   ar
    13    48    49    1
    14    49    50    1
    15    49    51    1
    16    39    40   ar
    17    39    30    1
    18    40    47    1
    19    30    33   ar
    20    30    28   ar
    21    38    33    1
    22    31    28    1
    23    33    32   ar
    24    28    27   ar
    25    47    46    3
    26    32    34    1
    27    32    29   ar
    28    27    35    1
    29    27    29   ar
    30    20    19    1
    31    29    18    1
    32    19    18   ar
    33    19    15   ar
    34    18    17   ar
    35    14     7    1
    36     7     4   ar
    37     7     6   ar
    38    15     4    1
    39    15    16   ar
    40     4     2   ar
    41     6     8    1
    42     6     3   ar
    43     2     1   ar
    44     2     5    1
    45     3     1   ar
    46     3     9    1
    47     1    10    1
    48    10    13    1
    49    10    11    1
    50    17    16   ar
    51    16    22    1
    52    23    26    1
    53    23    24    1
    54    22    21    3
