@<TRIPOS>MOLECULE
mol_data/noopt/geoms/mol2/4ia13li-4di-12if-.out
 55 55 0 0 0
SMALL
GASTEIGER

@<TRIPOS>ATOM
      1 C           0.0509    0.0309    0.0002 C.2     1  LIG1       -0.0511
      2 C           1.4592    0.0309    0.0002 C.3     2  LIG2        0.0000
      3 C          -0.6045    1.2792    0.0002 C.2     1  LIG1       -0.0731
      4 C           2.1849    1.2200   -0.0004 C.2     1  LIG1        0.0077
      5 H           1.9850   -0.9213    0.0004 H       2  LIG2        0.0194
      6 C           0.1195    2.4666   -0.0004 C.3     1  LIG1        0.0064
      7 C           1.5181    2.4458   -0.0008 C.2     1  LIG1       -0.0665
      8 H          -0.4090    3.4165   -0.0003 H       1  LIG1        0.0395
      9 H          -1.9035    1.3287    0.0016 H       1  LIG1        0.0581
     10 C          -0.5710   -1.1111    0.0005 C.3     1  LIG1       -0.0397
     11 H           0.0257   -1.8420    0.5050 H       1  LIG1        0.0278
     12 H          -0.7416   -1.4245   -1.0083 H       1  LIG1        0.0278
     13 H          -1.5088   -1.0063    0.5049 H       1  LIG1        0.0278
     14 H           2.1896    3.5590   -0.0012 H       1  LIG1        0.0585
     15 C           3.4844    1.1831   -0.0005 C.ar    1  LIG1        0.0948
     16 C           4.3366    0.1241    0.0157 C.ar    1  LIG1        0.2075
     17 C           5.6695    0.6477    0.0079 C.ar    1  LIG1        0.0222
     18 C           5.5731    2.0035   -0.0145 C.ar    1  LIG1        0.0549
     19 N           4.2371    2.3356   -0.0192 N.ar    1  LIG1       -0.3508
     20 H           3.8736    3.2606   -0.0344 H       1  LIG1        0.1660
     21 O           3.9999   -1.1314    0.0361 O.3     1  LIG1       -0.2854
     22 C           2.5743   -1.2431    0.0435 C.3     3  LIG3       -0.0776
     23 H           2.2975   -2.2765    0.0602 H       2  LIG2        0.0194
     24 H           2.1827   -0.7550    0.9116 H       2  LIG2        0.0194
     25 H           2.1757   -0.7812   -0.8355 H       2  LIG2        0.0194
     26 C           6.7711   -0.0430    0.0195 C.3     1  LIG1       -0.0340
     27 H           7.5335    0.5100    0.5271 H       1  LIG1        0.0279
     28 H           7.0810   -0.2373   -0.9861 H       1  LIG1        0.0279
     29 H           6.6053   -0.9703    0.5270 H       1  LIG1        0.0279
     30 C           7.8579    2.5361   -0.0148 C.ar    1  LIG1        0.0615
     31 C           8.8237    3.5610   -0.0300 C.ar    1  LIG1       -0.0328
     32 C           6.4999    2.9149   -0.0291 C.ar    1  LIG1        0.0163
     33 C           8.4559    4.9043   -0.0588 C.ar    1  LIG1        0.0218
     34 H           9.8773    3.2908   -0.0193 H       1  LIG1        0.0638
     35 C           6.1322    4.2558   -0.0577 C.ar    1  LIG1       -0.0478
     36 C           7.1065    5.2594   -0.0729 C.ar    1  LIG1       -0.0391
     37 H           5.0785    4.5224   -0.0681 H       1  LIG1        0.0627
     38 N           8.6193    0.2115    0.0350 N.1     1  LIG1       -0.1908
     39 C           8.2625    1.3009    0.0116 C.1     1  LIG1        0.0998
     40 C           6.7567    6.5115   -0.0995 C.3     1  LIG1       -0.0390
     41 H           5.8165    6.6298    0.3975 H       1  LIG1        0.0278
     42 H           6.6662    6.8350   -1.1154 H       1  LIG1        0.0278
     43 H           7.4994    7.0999    0.3975 H       1  LIG1        0.0278
     44 C           9.3739    5.8247   -0.0723 C.ar    1  LIG1        0.1416
     45 C          10.7533    5.8377   -0.0825 C.ar    1  LIG1        0.0367
     46 C          11.1548    7.2289   -0.0956 C.ar    1  LIG1        0.1580
     47 C           9.9937    7.9741   -0.0927 C.ar    1  LIG1        0.1341
     48 O           8.8821    7.1307   -0.0784 O.2     1  LIG1       -0.4589
     49 H           9.7067    9.2420   -0.0999 H       1  LIG1        0.1068
     50 C          11.5588    4.8170   -0.0808 C.3     1  LIG1       -0.0326
     51 H          12.4652    5.0787    0.4241 H       1  LIG1        0.0280
     52 H          11.7807    4.5360   -1.0891 H       1  LIG1        0.0280
     53 H          11.0935    3.9963    0.4241 H       1  LIG1        0.0280
     54 O          12.3799    7.6638   -0.1078 O.3     1  LIG1       -0.5034
     55 H          12.3791    8.6238   -0.1108 H       1  LIG1        0.2923
@<TRIPOS>BOND
     1    42    40    1
     2    52    50    1
     3    12    10    1
     4    28    26    1
     5    25    22    1
     6    55    54    1
     7    54    46    1
     8    49    47    1
     9    40    36    1
    10    40    43    1
    11    40    41    1
    12    46    47   ar
    13    46    45   ar
    14    47    48   ar
    15    45    50    1
    16    45    44   ar
    17    50    53    1
    18    50    51    1
    19    48    44   ar
    20    36    33   ar
    21    36    35   ar
    22    44    33    1
    23    37    35    1
    24    33    31   ar
    25    35    32   ar
    26    20    19    1
    27    31    34    1
    28    31    30   ar
    29    32    30   ar
    30    32    18    1
    31    19    18   ar
    32    19    15   ar
    33    30    39    1
    34    18    17   ar
    35    14     7    1
    36     7     4    2
    37     7     6    1
    38    15     4    1
    39    15    16   ar
    40     6     8    1
    41     6     3    1
    42     3     1    2
    43     3     9    1
    44     1    10    1
    45     5    22    1
    46    10    13    1
    47    10    11    1
    48    17    16   ar
    49    17    26    1
    50    39    38    3
    51    16    21    1
    52    26    29    1
    53    26    27    1
    54    22    23    1
    55    22    24    1
