@<TRIPOS>MOLECULE
mol_data/noopt/geoms/mol2/4ia4ia4ia.out
 41 43 0 0 0
SMALL
GASTEIGER

@<TRIPOS>ATOM
      1 C           0.0509    0.0309    0.0002 C.ar    1  LIG1       -0.0499
      2 C           1.4592    0.0309    0.0002 C.ar    1  LIG1       -0.0511
      3 C          -0.6045    1.2792    0.0002 C.ar    1  LIG1       -0.0588
      4 C           2.1849    1.2200   -0.0004 C.ar    1  LIG1       -0.0174
      5 H           1.9850   -0.9213    0.0004 H       1  LIG1        0.0626
      6 C           0.1195    2.4666   -0.0004 C.ar    1  LIG1       -0.0609
      7 C           1.5181    2.4458   -0.0008 C.ar    1  LIG1       -0.0540
      8 H          -0.4090    3.4165   -0.0003 H       1  LIG1        0.0618
      9 H          -1.9035    1.3287    0.0016 H       1  LIG1        0.0620
     10 C          -0.5710   -1.1111    0.0005 C.3     1  LIG1       -0.0397
     11 H           0.0257   -1.8420    0.5050 H       1  LIG1        0.0278
     12 H          -0.7416   -1.4245   -1.0083 H       1  LIG1        0.0278
     13 H          -1.5088   -1.0063    0.5049 H       1  LIG1        0.0278
     14 H           2.1896    3.5590   -0.0012 H       1  LIG1        0.0624
     15 C           4.1518   -0.0588    0.0002 C.ar    1  LIG1       -0.0422
     16 C           5.5600   -0.0451    0.0016 C.ar    1  LIG1       -0.0505
     17 C           3.4843    1.1831   -0.0005 C.ar    1  LIG1       -0.0149
     18 C           6.2742    1.1510    0.0017 C.ar    1  LIG1       -0.0173
     19 H           6.0950   -0.9922    0.0024 H       1  LIG1        0.0626
     20 C           4.1968    2.3775   -0.0004 C.ar    1  LIG1       -0.0532
     21 C           5.5955    2.3702    0.0006 C.ar    1  LIG1       -0.0534
     22 H           3.6591    3.3222   -0.0009 H       1  LIG1        0.0624
     23 C           3.5410   -1.2067   -0.0001 C.3     1  LIG1       -0.0391
     24 H           4.1447   -1.9321    0.5043 H       1  LIG1        0.0278
     25 H           3.3736   -1.5215   -1.0090 H       1  LIG1        0.0278
     26 H           2.6021   -1.1113    0.5042 H       1  LIG1        0.0278
     27 H           6.2561    3.4899    0.0008 H       1  LIG1        0.0624
     28 C           8.2534   -0.1087    0.0043 C.ar    1  LIG1       -0.0427
     29 C           9.6614   -0.0814    0.0071 C.ar    1  LIG1       -0.0583
     30 C           7.5739    1.1267    0.0029 C.ar    1  LIG1       -0.0150
     31 C          10.3639    1.1216    0.0079 C.ar    1  LIG1       -0.0615
     32 H          10.2056   -1.0232    0.0084 H       1  LIG1        0.0620
     33 C           8.2747    2.3279    0.0036 C.ar    1  LIG1       -0.0538
     34 C           9.6734    2.3342    0.0060 C.ar    1  LIG1       -0.0612
     35 H           7.7279    3.2674    0.0026 H       1  LIG1        0.0624
     36 H          11.6639    1.1099    0.0104 H       1  LIG1        0.0618
     37 C           7.6537   -1.2625    0.0034 C.3     1  LIG1       -0.0391
     38 H           8.2643   -1.9821    0.5076 H       1  LIG1        0.0278
     39 H           7.4896   -1.5784   -1.0056 H       1  LIG1        0.0278
     40 H           6.7139   -1.1763    0.5076 H       1  LIG1        0.0278
     41 H          10.3232    3.4602    0.0069 H       1  LIG1        0.0618
@<TRIPOS>BOND
     1    25    23    1
     2    12    10    1
     3    39    37    1
     4    14     7    1
     5    22    20    1
     6     7     4   ar
     7     7     6   ar
     8    17    20   ar
     9    17     4    1
    10    17    15   ar
    11    20    21   ar
    12     4     2   ar
    13     6     8    1
    14     6     3   ar
    15    23    15    1
    16    23    26    1
    17    23    24    1
    18     1     3   ar
    19     1     2   ar
    20     1    10    1
    21     3     9    1
    22     2     5    1
    23    15    16   ar
    24    10    13    1
    25    10    11    1
    26    21    27    1
    27    21    18   ar
    28    16    18   ar
    29    16    19    1
    30    18    30    1
    31    35    33    1
    32    30    33   ar
    33    30    28   ar
    34    37    28    1
    35    37    40    1
    36    37    38    1
    37    33    34   ar
    38    28    29   ar
    39    34    41    1
    40    34    31   ar
    41    29    31   ar
    42    29    32    1
    43    31    36    1
