@<TRIPOS>MOLECULE
mol_data/noopt/geoms/mol2/4ia4ia4ia4ia-.out
 54 57 0 0 0
SMALL
GASTEIGER

@<TRIPOS>ATOM
      1 C           0.0509    0.0309    0.0002 C.ar    1  LIG1       -0.0499
      2 C           1.4592    0.0309    0.0002 C.ar    1  LIG1       -0.0511
      3 C          -0.6045    1.2792    0.0002 C.ar    1  LIG1       -0.0588
      4 C           2.1849    1.2200   -0.0004 C.ar    1  LIG1       -0.0174
      5 H           1.9850   -0.9213    0.0004 H       1  LIG1        0.0626
      6 C           0.1195    2.4666   -0.0004 C.ar    1  LIG1       -0.0609
      7 C           1.5181    2.4458   -0.0008 C.ar    1  LIG1       -0.0540
      8 H          -0.4090    3.4165   -0.0003 H       1  LIG1        0.0618
      9 H          -1.9035    1.3287    0.0016 H       1  LIG1        0.0620
     10 C          -0.5710   -1.1111    0.0005 C.3     1  LIG1       -0.0397
     11 H           0.0257   -1.8420    0.5050 H       1  LIG1        0.0278
     12 H          -0.7416   -1.4245   -1.0083 H       1  LIG1        0.0278
     13 H          -1.5088   -1.0063    0.5049 H       1  LIG1        0.0278
     14 H           2.1896    3.5590   -0.0012 H       1  LIG1        0.0624
     15 C           4.1518   -0.0588    0.0002 C.ar    1  LIG1       -0.0422
     16 C           5.5600   -0.0451    0.0016 C.ar    1  LIG1       -0.0505
     17 C           3.4843    1.1831   -0.0005 C.ar    1  LIG1       -0.0149
     18 C           6.2742    1.1510    0.0017 C.ar    1  LIG1       -0.0173
     19 H           6.0950   -0.9922    0.0024 H       1  LIG1        0.0626
     20 C           4.1968    2.3775   -0.0004 C.ar    1  LIG1       -0.0532
     21 C           5.5955    2.3702    0.0006 C.ar    1  LIG1       -0.0534
     22 H           3.6591    3.3222   -0.0009 H       1  LIG1        0.0624
     23 C           3.5410   -1.2067   -0.0001 C.3     1  LIG1       -0.0391
     24 H           4.1447   -1.9321    0.5043 H       1  LIG1        0.0278
     25 H           3.3736   -1.5215   -1.0090 H       1  LIG1        0.0278
     26 H           2.6021   -1.1113    0.5042 H       1  LIG1        0.0278
     27 H           6.2561    3.4899    0.0008 H       1  LIG1        0.0624
     28 C           8.2534   -0.1087    0.0043 C.ar    1  LIG1       -0.0422
     29 C           9.6614   -0.0814    0.0071 C.ar    1  LIG1       -0.0505
     30 C           7.5739    1.1267    0.0029 C.ar    1  LIG1       -0.0149
     31 C          10.3639    1.1216    0.0079 C.ar    1  LIG1       -0.0173
     32 H          10.2056   -1.0232    0.0084 H       1  LIG1        0.0626
     33 C           8.2747    2.3279    0.0036 C.ar    1  LIG1       -0.0532
     34 C           9.6734    2.3342    0.0060 C.ar    1  LIG1       -0.0534
     35 H           7.7279    3.2674    0.0026 H       1  LIG1        0.0624
     36 C           7.6537   -1.2625    0.0034 C.3     1  LIG1       -0.0391
     37 H           8.2643   -1.9821    0.5076 H       1  LIG1        0.0278
     38 H           7.4896   -1.5784   -1.0056 H       1  LIG1        0.0278
     39 H           6.7139   -1.1763    0.5076 H       1  LIG1        0.0278
     40 H          10.3232    3.4602    0.0069 H       1  LIG1        0.0624
     41 C          12.3772    2.3260    0.0125 C.ar    1  LIG1       -0.0427
     42 C          13.7839    2.2597    0.0167 C.ar    1  LIG1       -0.0583
     43 C          11.6638    1.1099    0.0104 C.ar    1  LIG1       -0.0150
     44 C          14.4529    1.0378    0.0181 C.ar    1  LIG1       -0.0615
     45 H          14.3540    3.1861    0.0186 H       1  LIG1        0.0620
     46 C          12.3311   -0.1102    0.0118 C.ar    1  LIG1       -0.0538
     47 C          13.7291   -0.1553    0.0156 C.ar    1  LIG1       -0.0612
     48 H          11.7585   -1.0342    0.0102 H       1  LIG1        0.0624
     49 H          15.7527    1.0135    0.0219 H       1  LIG1        0.0618
     50 C          11.8097    3.4959    0.0110 C.3     1  LIG1       -0.0391
     51 H          10.8678    3.4361    0.5151 H       1  LIG1        0.0278
     52 H          11.6545    3.8158   -0.9982 H       1  LIG1        0.0278
     53 H          12.4400    4.1986    0.5150 H       1  LIG1        0.0278
     54 H          14.3475   -1.2988    0.0171 H       1  LIG1        0.0618
@<TRIPOS>BOND
     1    25    23    1
     2    12    10    1
     3    38    36    1
     4    52    50    1
     5    14     7    1
     6    22    20    1
     7     7     6   ar
     8     7     4   ar
     9    17    20   ar
    10    17     4    1
    11    17    15   ar
    12    20    21   ar
    13     6     8    1
    14     6     3   ar
    15     4     2   ar
    16    23    15    1
    17    23    26    1
    18    23    24    1
    19     1     3   ar
    20     1     2   ar
    21     1    10    1
    22     3     9    1
    23     2     5    1
    24    15    16   ar
    25    10    13    1
    26    10    11    1
    27    21    27    1
    28    21    18   ar
    29    16    18   ar
    30    16    19    1
    31    18    30    1
    32    35    33    1
    33    30    33   ar
    34    30    28   ar
    35    36    28    1
    36    36    39    1
    37    36    37    1
    38    33    34   ar
    39    28    29   ar
    40    34    40    1
    41    34    31   ar
    42    29    31   ar
    43    29    32    1
    44    31    43    1
    45    48    46    1
    46    43    46   ar
    47    43    41   ar
    48    50    41    1
    49    50    53    1
    50    50    51    1
    51    46    47   ar
    52    41    42   ar
    53    47    54    1
    54    47    44   ar
    55    42    44   ar
    56    42    45    1
    57    44    49    1
