@<TRIPOS>MOLECULE
mol_data/noopt/geoms/mol2/4ia4ia-.out
 28 29 0 0 0
SMALL
GASTEIGER

@<TRIPOS>ATOM
      1 C           0.0509    0.0309    0.0002 C.ar    1  LIG1       -0.0499
      2 C           1.4592    0.0309    0.0002 C.ar    1  LIG1       -0.0511
      3 C          -0.6045    1.2792    0.0002 C.ar    1  LIG1       -0.0588
      4 C           2.1849    1.2200   -0.0004 C.ar    1  LIG1       -0.0174
      5 H           1.9850   -0.9213    0.0004 H       1  LIG1        0.0626
      6 C           0.1195    2.4666   -0.0004 C.ar    1  LIG1       -0.0609
      7 C           1.5181    2.4458   -0.0008 C.ar    1  LIG1       -0.0540
      8 H          -0.4090    3.4165   -0.0003 H       1  LIG1        0.0618
      9 H          -1.9035    1.3287    0.0016 H       1  LIG1        0.0620
     10 C          -0.5710   -1.1111    0.0005 C.3     1  LIG1       -0.0397
     11 H           0.0257   -1.8420    0.5050 H       1  LIG1        0.0278
     12 H          -0.7416   -1.4245   -1.0083 H       1  LIG1        0.0278
     13 H          -1.5088   -1.0063    0.5049 H       1  LIG1        0.0278
     14 H           2.1896    3.5590   -0.0012 H       1  LIG1        0.0624
     15 C           4.2212    2.3851    0.0002 C.ar    1  LIG1       -0.0427
     16 C           5.6264    2.2916    0.0016 C.ar    1  LIG1       -0.0583
     17 C           3.4843    1.1831   -0.0005 C.ar    1  LIG1       -0.0150
     18 C           6.2715    1.0569    0.0017 C.ar    1  LIG1       -0.0615
     19 H           6.2143    3.2067    0.0024 H       1  LIG1        0.0620
     20 C           4.1278   -0.0498   -0.0004 C.ar    1  LIG1       -0.0538
     21 C           5.5247   -0.1219    0.0006 C.ar    1  LIG1       -0.0612
     22 H           3.5374   -0.9625   -0.0009 H       1  LIG1        0.0624
     23 H           7.5706    1.0074    0.0029 H       1  LIG1        0.0618
     24 C           3.6765    3.5659   -0.0001 C.3     1  LIG1       -0.0391
     25 H           2.7338    3.5239    0.5043 H       1  LIG1        0.0278
     26 H           3.5272    3.8895   -1.0090 H       1  LIG1        0.0278
     27 H           4.3204    4.2558    0.5042 H       1  LIG1        0.0278
     28 H           6.1208   -1.2772    0.0008 H       1  LIG1        0.0618
@<TRIPOS>BOND
     1    26    24    1
     2    12    10    1
     3    14     7    1
     4    22    20    1
     5     7     4   ar
     6     7     6   ar
     7    17    20   ar
     8    17     4    1
     9    17    15   ar
    10    20    21   ar
    11     4     2   ar
    12     6     8    1
    13     6     3   ar
    14    24    15    1
    15    24    27    1
    16    24    25    1
    17    15    16   ar
    18     1     3   ar
    19     1     2   ar
    20     1    10    1
    21     3     9    1
    22     2     5    1
    23    10    13    1
    24    10    11    1
    25    21    28    1
    26    21    18   ar
    27    16    18   ar
    28    16    19    1
    29    18    23    1
