@<TRIPOS>MOLECULE
mol_data/noopt/geoms/mol2/4ia6ad-13af-6ah-.out
 45 48 0 0 0
SMALL
GASTEIGER

@<TRIPOS>ATOM
      1 C           0.0509    0.0309    0.0002 C.ar    1  LIG1       -0.0499
      2 C           1.4592    0.0309    0.0002 C.ar    1  LIG1       -0.0511
      3 C          -0.6045    1.2792    0.0002 C.ar    1  LIG1       -0.0588
      4 C           2.1849    1.2200   -0.0004 C.ar    1  LIG1       -0.0162
      5 H           1.9850   -0.9213    0.0004 H       1  LIG1        0.0626
      6 C           0.1195    2.4666   -0.0004 C.ar    1  LIG1       -0.0609
      7 C           1.5181    2.4458   -0.0008 C.ar    1  LIG1       -0.0540
      8 H          -0.4090    3.4165   -0.0003 H       1  LIG1        0.0618
      9 H          -1.9035    1.3287    0.0016 H       1  LIG1        0.0620
     10 C          -0.5710   -1.1111    0.0005 C.3     1  LIG1       -0.0397
     11 H           0.0257   -1.8420    0.5050 H       1  LIG1        0.0278
     12 H          -0.7416   -1.4245   -1.0083 H       1  LIG1        0.0278
     13 H          -1.5088   -1.0063    0.5049 H       1  LIG1        0.0278
     14 H           2.1896    3.5590   -0.0012 H       1  LIG1        0.0624
     15 C           4.2297    2.3762   -0.0216 C.ar    1  LIG1        0.0361
     16 C           3.4844    1.1831   -0.0005 C.ar    1  LIG1        0.0015
     17 C           4.1715   -0.0320    0.0205 C.ar    1  LIG1       -0.0330
     18 C           5.5674   -0.0147    0.0195 C.ar    1  LIG1        0.0797
     19 C           6.2235    1.2297   -0.0026 C.ar    1  LIG1        0.1045
     20 N           5.5764    2.4113   -0.0228 N.ar    1  LIG1       -0.2516
     21 H           3.6233   -0.9846    0.0362 H       1  LIG1        0.0638
     22 H           3.6351    3.5321   -0.0414 H       1  LIG1        0.0836
     23 N           6.8580   -2.0929    0.0549 N.1     1  LIG1       -0.1908
     24 C           6.2531   -1.1189    0.0383 C.1     1  LIG1        0.1014
     25 C           7.5217    1.2976   -0.0044 C.ar    1  LIG1        0.0702
     26 C           8.4565    0.3107    0.0107 C.ar    1  LIG1        0.0073
     27 C           9.7428    0.9399    0.0013 C.ar    1  LIG1        0.1427
     28 C           9.5376    2.2836   -0.0209 C.ar    1  LIG1        0.0905
     29 N           8.1791    2.5069   -0.0240 N.ar    1  LIG1       -0.3500
     30 H           7.7424    3.3997   -0.0387 H       1  LIG1        0.1661
     31 H           8.2220   -0.9678    0.0315 H       1  LIG1        0.0676
     32 O          10.8963    0.3403    0.0115 O.3     1  LIG1       -0.5046
     33 H          11.5980    0.9954    0.0140 H       1  LIG1        0.2922
     34 C           9.9351    4.5984   -0.0662 C.ar    1  LIG1        0.0369
     35 C          10.3880    3.2667   -0.0366 C.ar    1  LIG1        0.0217
     36 C          11.7639    3.0305   -0.0244 C.ar    1  LIG1       -0.0289
     37 C          12.6333    4.1225   -0.0421 C.ar    1  LIG1        0.0435
     38 C          12.0843    5.4176   -0.0716 C.ar    1  LIG1        0.0482
     39 N          10.7596    5.6636   -0.0837 N.ar    1  LIG1       -0.2608
     40 H          12.1551    2.0035   -0.0023 H       1  LIG1        0.0643
     41 H          12.8527    6.4660   -0.0889 H       1  LIG1        0.0848
     42 H           8.6636    4.8688   -0.0786 H       1  LIG1        0.0836
     43 N          13.9225    3.9554   -0.0319 N.pl3   1  LIG1       -0.3568
     44 H          14.1517    3.1024   -0.5006 H       1  LIG1        0.1424
     45 H          14.3617    4.7218   -0.5007 H       1  LIG1        0.1424
@<TRIPOS>BOND
     1    12    10    1
     2    45    43    1
     3    44    43    1
     4    41    38    1
     5    39    38   ar
     6    39    34   ar
     7    42    34    1
     8    38    37   ar
     9    34    35   ar
    10    37    43    1
    11    37    36   ar
    12    22    15    1
    13    30    29    1
    14    35    36   ar
    15    35    28    1
    16    36    40    1
    17    29    28   ar
    18    29    25   ar
    19    20    15   ar
    20    20    19   ar
    21    15    16   ar
    22    28    27   ar
    23    25    19    1
    24    25    26   ar
    25    19    18   ar
    26    14     7    1
    27     7     6   ar
    28     7     4   ar
    29    16     4    1
    30    16    17   ar
    31     6     8    1
    32     6     3   ar
    33     4     2   ar
    34     1     2   ar
    35     1     3   ar
    36     1    10    1
    37     2     5    1
    38     3     9    1
    39    10    13    1
    40    10    11    1
    41    27    26   ar
    42    27    32    1
    43    26    31    1
    44    32    33    1
    45    18    17   ar
    46    18    24    1
    47    17    21    1
    48    24    23    3
