@<TRIPOS>MOLECULE
mol_data/noopt/geoms/mol2/4ia6ee(110)13al(90)6ei(40).out
 54 57 0 0 0
SMALL
GASTEIGER

@<TRIPOS>ATOM
      1 C           0.0509    0.0309    0.0002 C.ar    1  LIG1       -0.0499
      2 C           1.4592    0.0309    0.0002 C.ar    1  LIG1       -0.0510
      3 C          -0.6045    1.2792    0.0002 C.ar    1  LIG1       -0.0588
      4 C           2.1849    1.2200   -0.0004 C.ar    1  LIG1       -0.0149
      5 H           1.9850   -0.9213    0.0004 H       1  LIG1        0.0626
      6 C           0.1195    2.4666   -0.0004 C.ar    1  LIG1       -0.0609
      7 C           1.5181    2.4458   -0.0008 C.ar    1  LIG1       -0.0539
      8 H          -0.4090    3.4165   -0.0003 H       1  LIG1        0.0618
      9 H          -1.9035    1.3287    0.0016 H       1  LIG1        0.0620
     10 C          -0.5710   -1.1111    0.0005 C.3     1  LIG1       -0.0397
     11 H           0.0257   -1.8420    0.5050 H       1  LIG1        0.0278
     12 H          -0.7416   -1.4245   -1.0083 H       1  LIG1        0.0278
     13 H          -1.5088   -1.0063    0.5049 H       1  LIG1        0.0278
     14 H           2.1896    3.5590   -0.0012 H       1  LIG1        0.0624
     15 C           4.1833    0.7477   -1.1412 C.ar    1  LIG1        0.1216
     16 C           3.4844    1.1831   -0.0005 C.ar    1  LIG1        0.0172
     17 C           4.2172    1.5717    1.1224 C.ar    1  LIG1       -0.0338
     18 C           5.6108    1.5128    1.0688 C.ar    1  LIG1        0.0527
     19 C           6.2188    1.0631   -0.1176 C.ar    1  LIG1        0.1039
     20 N           5.5272    0.6846   -1.2103 N.ar    1  LIG1       -0.2351
     21 H           3.7058    1.9166    2.0323 H       1  LIG1        0.0637
     22 C           3.5454    0.3759   -2.2111 C.1     1  LIG1       -0.0492
     23 C           2.9558    0.0323   -3.1997 C.1     1  LIG1       -0.1124
     24 H           2.4307   -0.2738   -4.0803 H       1  LIG1        0.1232
     25 C           6.3380    1.8635    2.0878 C.1     1  LIG1       -0.0675
     26 C           7.0099    2.1875    3.0293 C.1     1  LIG1       -0.1138
     27 H           7.6084    2.4761    3.8679 H       1  LIG1        0.1232
     28 C           7.5130    0.9907   -0.2162 C.ar    1  LIG1        0.0702
     29 C           8.4693    0.9366    0.7484 C.ar    1  LIG1        0.0076
     30 C           9.7385    0.8670    0.0890 C.ar    1  LIG1        0.1460
     31 C           9.5019    0.8798   -1.2497 C.ar    1  LIG1        0.0919
     32 N           8.1407    0.9559   -1.4409 N.ar    1  LIG1       -0.3499
     33 H           7.6836    0.9811   -2.3232 H       1  LIG1        0.1661
     34 H           8.2654    0.9479    2.0323 H       1  LIG1        0.0676
     35 O          10.9040    0.8028    0.6613 O.3     1  LIG1       -0.4930
     36 C          11.2578   -0.5667    0.8713 C.3     1  LIG1        0.0789
     37 H          12.2172   -0.6191    1.3422 H       1  LIG1        0.0660
     38 H          10.5266   -1.0318    1.4990 H       1  LIG1        0.0660
     39 H          11.2944   -1.0741   -0.0700 H       1  LIG1        0.0660
     40 C          10.2297    1.7715   -3.2974 C.ar    1  LIG1        0.1223
     41 C          10.3276    0.8343   -2.2527 C.ar    1  LIG1        0.0359
     42 C          11.3271   -0.1380   -2.3208 C.ar    1  LIG1       -0.0455
     43 C          12.1873   -0.1417   -3.4201 C.ar    1  LIG1       -0.0316
     44 C          12.0097    0.8372   -4.4150 C.ar    1  LIG1        0.0319
     45 N          11.0510    1.7826   -4.3653 N.ar    1  LIG1       -0.2458
     46 H          11.4337   -0.8875   -1.5238 H       1  LIG1        0.0628
     47 H          12.7854    0.8750   -5.4575 H       1  LIG1        0.0832
     48 C           9.3158    2.6958   -3.2790 C.1     1  LIG1       -0.0491
     49 C           8.4713    3.5499   -3.2619 C.1     1  LIG1       -0.1124
     50 H           7.7191    4.3107   -3.2467 H       1  LIG1        0.1232
     51 C          13.1339   -1.0264   -3.5301 C.3     1  LIG1       -0.0383
     52 H          14.0212   -0.6600   -3.0576 H       1  LIG1        0.0278
     53 H          13.3312   -1.2108   -4.5655 H       1  LIG1        0.0278
     54 H          12.8280   -1.9365   -3.0577 H       1  LIG1        0.0278
@<TRIPOS>BOND
     1    47    44    1
     2    53    51    1
     3    44    45   ar
     4    44    43   ar
     5    45    40   ar
     6    24    23    1
     7    51    43    1
     8    51    54    1
     9    51    52    1
    10    43    42   ar
    11    40    48    1
    12    40    41   ar
    13    48    49    3
    14    49    50    1
    15    23    22    3
    16    33    32    1
    17    42    41   ar
    18    42    46    1
    19    41    31    1
    20    22    15    1
    21    32    31   ar
    22    32    28   ar
    23    31    30   ar
    24    20    15   ar
    25    20    19   ar
    26    15    16   ar
    27    12    10    1
    28    28    19    1
    29    28    29   ar
    30    19    18   ar
    31    39    36    1
    32    14     7    1
    33     7     4   ar
    34     7     6   ar
    35    16     4    1
    36    16    17   ar
    37     4     2   ar
    38     6     8    1
    39     6     3   ar
    40     2     1   ar
    41     2     5    1
    42     1     3   ar
    43     1    10    1
    44     3     9    1
    45    10    13    1
    46    10    11    1
    47    30    35    1
    48    30    29   ar
    49    35    36    1
    50    29    34    1
    51    36    37    1
    52    36    38    1
    53    18    17   ar
    54    18    25    1
    55    17    21    1
    56    25    26    3
    57    26    27    1
