@<TRIPOS>MOLECULE
mol_data/noopt/geoms/mol2/4id12ef(340)12id(200)13hd(230).out
 48 51 0 0 0
SMALL
GASTEIGER

@<TRIPOS>ATOM
      1 C           0.0509    0.0309    0.0002 C.ar    1  LIG1       -0.0497
      2 C           1.4592    0.0309    0.0002 C.ar    1  LIG1       -0.0469
      3 C          -0.6045    1.2792    0.0002 C.ar    1  LIG1       -0.0576
      4 C           2.1849    1.2200   -0.0004 C.ar    1  LIG1        0.0362
      5 H           1.9850   -0.9213    0.0004 H       1  LIG1        0.0628
      6 C           0.1195    2.4666   -0.0004 C.ar    1  LIG1       -0.0434
      7 C           1.5181    2.4458   -0.0008 C.ar    1  LIG1        0.0625
      8 H          -0.4090    3.4165   -0.0003 H       1  LIG1        0.0631
      9 H          -1.9035    1.3287    0.0016 H       1  LIG1        0.0621
     10 C          -0.5710   -1.1111    0.0005 C.3     1  LIG1       -0.0397
     11 H           0.0257   -1.8420    0.5050 H       1  LIG1        0.0278
     12 H          -0.7416   -1.4245   -1.0083 H       1  LIG1        0.0278
     13 H          -1.5088   -1.0063    0.5049 H       1  LIG1        0.0278
     14 N           2.7818    4.5408   -0.0016 N.1     1  LIG1       -0.1908
     15 C           2.1896    3.5590   -0.0012 C.1     1  LIG1        0.0999
     16 C           3.4844    1.1831   -0.0005 C.ar    1  LIG1        0.1561
     17 C           4.4412    0.2338   -0.2945 C.ar    1  LIG1        0.1126
     18 C           5.7282    0.8627   -0.0825 C.ar    1  LIG1        0.1822
     19 C           5.4724    2.1551    0.3270 C.ar    1  LIG1        0.2132
     20 O           4.0961    2.3767    0.3852 O.2     1  LIG1       -0.4466
     21 C           4.2525   -0.9912   -0.6865 C.1     1  LIG1       -0.0622
     22 C           4.0781   -2.1232   -1.0487 C.1     1  LIG1       -0.1137
     23 H           3.9229   -3.1315   -1.3714 H       1  LIG1        0.1232
     24 O           6.8857    0.2957   -0.2528 O.3     1  LIG1       -0.5023
     25 H           7.5690    0.9687   -0.2948 H       1  LIG1        0.2923
     26 C           6.1970    3.1816    0.6607 C.ar    1  LIG1        0.1785
     27 C           6.0356    4.5513    0.6290 C.ar    1  LIG1        0.0166
     28 C           7.2547    5.1250    1.1596 C.ar    1  LIG1        0.1025
     29 C           8.0806    4.0673    1.4805 C.ar    1  LIG1        0.1713
     30 O           7.4506    2.8587    1.1821 O.2     1  LIG1       -0.4485
     31 C           5.0029    5.2214    0.2104 C.3     1  LIG1       -0.0348
     32 H           4.1078    4.7609    0.5731 H       1  LIG1        0.0279
     33 H           4.9920    5.2284   -0.8596 H       1  LIG1        0.0279
     34 H           5.0591    6.2265    0.5731 H       1  LIG1        0.0279
     35 N           7.7118    7.5147    1.4166 N.1     1  LIG1       -0.1907
     36 C           7.4976    6.3948    1.2962 C.1     1  LIG1        0.1033
     37 C           9.2737    3.9427    1.9814 C.ar    1  LIG1        0.1056
     38 C          10.4484    4.5212    1.6163 C.ar    1  LIG1        0.0709
     39 C          11.4596    4.0343    2.5056 C.ar    1  LIG1        0.0903
     40 C          10.8580    3.1809    3.3763 C.ar    1  LIG1        0.0216
     41 N           9.5198    3.1216    3.0586 N.ar    1  LIG1       -0.3556
     42 H           8.8392    2.5734    3.5322 H       1  LIG1        0.1655
     43 H          11.3536    2.4934    4.3620 H       1  LIG1        0.0820
     44 N          10.6188    5.3604    0.6381 N.pl3   1  LIG1       -0.3552
     45 H          11.3921    5.0654    0.0768 H       1  LIG1        0.1424
     46 H           9.7918    5.3904    0.0768 H       1  LIG1        0.1424
     47 N          13.8335    4.6253    2.4712 N.1     1  LIG1       -0.1908
     48 C          12.7209    4.3483    2.4874 C.1     1  LIG1        0.1025
@<TRIPOS>BOND
     1    23    22    1
     2    22    21    3
     3    12    10    1
     4    33    31    1
     5    21    17    1
     6    25    24    1
     7    17    18   ar
     8    17    16   ar
     9    24    18    1
    10    18    19   ar
    11    14    15    3
    12    15     7    1
    13     7     6   ar
    14     7     4   ar
    15    16     4    1
    16    16    20   ar
    17     6     8    1
    18     6     3   ar
    19     4     2   ar
    20     1     3   ar
    21     1     2   ar
    22     1    10    1
    23     3     9    1
    24     2     5    1
    25    10    13    1
    26    10    11    1
    27    46    44    1
    28    45    44    1
    29    31    34    1
    30    31    32    1
    31    31    27    1
    32    19    20   ar
    33    19    26    1
    34    27    26   ar
    35    27    28   ar
    36    44    38    1
    37    26    30   ar
    38    28    36    1
    39    28    29   ar
    40    30    29   ar
    41    36    35    3
    42    29    37    1
    43    38    37   ar
    44    38    39   ar
    45    37    41   ar
    46    47    48    3
    47    48    39    1
    48    39    40   ar
    49    41    40   ar
    50    41    42    1
    51    40    43    1
