@<TRIPOS>MOLECULE
mol_data/noopt/geoms/mol2/4id13fl-13de-13ae.out
 50 53 0 0 0
SMALL
GASTEIGER

@<TRIPOS>ATOM
      1 C           0.0509    0.0309    0.0002 C.ar    1  LIG1       -0.0498
      2 C           1.4592    0.0309    0.0002 C.ar    1  LIG1       -0.0484
      3 C          -0.6045    1.2792    0.0002 C.ar    1  LIG1       -0.0576
      4 C           2.1849    1.2200   -0.0004 C.ar    1  LIG1        0.0196
      5 H           1.9850   -0.9213    0.0004 H       1  LIG1        0.0627
      6 C           0.1195    2.4666   -0.0004 C.ar    1  LIG1       -0.0435
      7 C           1.5181    2.4458   -0.0008 C.ar    1  LIG1        0.0610
      8 H          -0.4090    3.4165   -0.0003 H       1  LIG1        0.0631
      9 H          -1.9035    1.3287    0.0016 H       1  LIG1        0.0621
     10 C          -0.5710   -1.1111    0.0005 C.3     1  LIG1       -0.0397
     11 H           0.0257   -1.8420    0.5050 H       1  LIG1        0.0278
     12 H          -0.7416   -1.4245   -1.0083 H       1  LIG1        0.0278
     13 H          -1.5088   -1.0063    0.5049 H       1  LIG1        0.0278
     14 N           2.7818    4.5408   -0.0016 N.1     1  LIG1       -0.1908
     15 C           2.1896    3.5590   -0.0012 C.1     1  LIG1        0.0998
     16 C           3.4844    1.1831   -0.0005 C.ar    1  LIG1        0.0940
     17 C           4.3366    0.1241    0.0157 C.ar    1  LIG1        0.1851
     18 C           5.6695    0.6477    0.0079 C.ar    1  LIG1        0.1888
     19 C           5.5731    2.0035   -0.0145 C.ar    1  LIG1        0.1106
     20 N           4.2371    2.3356   -0.0192 N.ar    1  LIG1       -0.3471
     21 H           3.8736    3.2606   -0.0344 H       1  LIG1        0.1662
     22 O           3.9999   -1.1314    0.0361 O.3     1  LIG1       -0.5019
     23 H           4.7909   -1.6752    0.0411 H       1  LIG1        0.2924
     24 O           6.7709   -0.0429    0.0195 O.3     1  LIG1       -0.4895
     25 C           6.4591   -1.4385    0.0237 C.3     1  LIG1        0.0791
     26 H           7.3659   -2.0065    0.0331 H       1  LIG1        0.0660
     27 H           5.8826   -1.6726    0.8942 H       1  LIG1        0.0660
     28 H           5.8956   -1.6808   -0.8530 H       1  LIG1        0.0660
     29 C           6.5000    2.9149   -0.0291 C.ar    1  LIG1        0.0859
     30 C           7.8541    2.7957   -0.0393 C.ar    1  LIG1        0.0945
     31 C           8.3999    4.1195   -0.0528 C.ar    1  LIG1        0.0693
     32 C           7.3554    4.9895   -0.0519 C.ar    1  LIG1        0.0802
     33 N           6.1903    4.2563   -0.0370 N.ar    1  LIG1       -0.3498
     34 H           5.2714    4.6352   -0.0331 H       1  LIG1        0.1661
     35 N           9.1190    0.7015   -0.0328 N.1     1  LIG1       -0.1908
     36 C           8.5262    1.6829   -0.0359 C.1     1  LIG1        0.1026
     37 C           9.6610    4.4351   -0.0642 C.1     1  LIG1       -0.0662
     38 C          10.8262    4.7267   -0.0748 C.1     1  LIG1       -0.1138
     39 H          11.8641    4.9865   -0.0842 H       1  LIG1        0.1232
     40 C           7.3402    6.2894   -0.0615 C.ar    1  LIG1        0.0653
     41 C           8.3643    7.1833   -0.0683 C.ar    1  LIG1       -0.0195
     42 C           7.7878    8.4941   -0.0767 C.ar    1  LIG1        0.0426
     43 C           6.4367    8.3435   -0.0763 C.ar    1  LIG1        0.0177
     44 N           6.1584    6.9953   -0.0666 N.ar    1  LIG1       -0.3584
     45 H           5.2485    6.5951   -0.0643 H       1  LIG1        0.1654
     46 H           5.4888    9.2331   -0.0824 H       1  LIG1        0.0819
     47 H           9.6324    6.8971   -0.0660 H       1  LIG1        0.0651
     48 C           8.4338    9.6222   -0.0838 C.1     1  LIG1       -0.0682
     49 C           9.0307   10.6646   -0.0903 C.1     1  LIG1       -0.1139
     50 H           9.5624   11.5931   -0.0962 H       1  LIG1        0.1232
@<TRIPOS>BOND
     1    12    10    1
     2    28    25    1
     3    50    49    1
     4    49    48    3
     5    39    38    1
     6    48    42    1
     7    46    43    1
     8    42    43   ar
     9    42    41   ar
    10    43    44   ar
    11    38    37    3
    12    41    47    1
    13    41    40   ar
    14    44    45    1
    15    44    40   ar
    16    37    31    1
    17    40    32    1
    18    31    32   ar
    19    31    30   ar
    20    32    33   ar
    21    30    36    1
    22    30    29   ar
    23    33    34    1
    24    33    29   ar
    25    36    35    3
    26    21    20    1
    27    29    19    1
    28    20    19   ar
    29    20    16   ar
    30    19    18   ar
    31    14    15    3
    32    15     7    1
    33     7     6   ar
    34     7     4   ar
    35    16     4    1
    36    16    17   ar
    37     6     8    1
    38     6     3   ar
    39     4     2   ar
    40     1     3   ar
    41     1     2   ar
    42     1    10    1
    43     3     9    1
    44     2     5    1
    45    10    13    1
    46    10    11    1
    47    18    17   ar
    48    18    24    1
    49    17    22    1
    50    24    25    1
    51    25    26    1
    52    25    27    1
    53    22    23    1
