@<TRIPOS>MOLECULE
mol_data/noopt/geoms/mol2/4id13hf-6fl-4hh-4dh13fe-12dh-13la-.out
 101 107 0 0 0
SMALL
GASTEIGER

@<TRIPOS>ATOM
      1 C           0.0509    0.0309    0.0002 C.ar    1  LIG1       -0.0498
      2 C           1.4592    0.0309    0.0002 C.ar    1  LIG1       -0.0484
      3 C          -0.6045    1.2792    0.0002 C.ar    1  LIG1       -0.0576
      4 C           2.1849    1.2200   -0.0004 C.ar    1  LIG1        0.0178
      5 H           1.9850   -0.9213    0.0004 H       1  LIG1        0.0627
      6 C           0.1195    2.4666   -0.0004 C.ar    1  LIG1       -0.0435
      7 C           1.5181    2.4458   -0.0008 C.ar    1  LIG1        0.0609
      8 H          -0.4090    3.4165   -0.0003 H       1  LIG1        0.0631
      9 H          -1.9035    1.3287    0.0016 H       1  LIG1        0.0621
     10 C          -0.5710   -1.1111    0.0005 C.3     1  LIG1       -0.0397
     11 H           0.0257   -1.8420    0.5050 H       1  LIG1        0.0278
     12 H          -0.7416   -1.4245   -1.0083 H       1  LIG1        0.0278
     13 H          -1.5088   -1.0063    0.5049 H       1  LIG1        0.0278
     14 N           2.7818    4.5408   -0.0016 N.1     1  LIG1       -0.1908
     15 C           2.1896    3.5590   -0.0012 C.1     1  LIG1        0.0998
     16 C           3.4844    1.1831   -0.0005 C.ar    1  LIG1        0.0728
     17 C           4.3366    0.1241    0.0157 C.ar    1  LIG1        0.0929
     18 C           5.6695    0.6477    0.0079 C.ar    1  LIG1        0.1636
     19 C           5.5731    2.0035   -0.0145 C.ar    1  LIG1        0.0961
     20 N           4.2371    2.3356   -0.0192 N.ar    1  LIG1       -0.3496
     21 H           3.8736    3.2606   -0.0344 H       1  LIG1        0.1661
     22 N           3.9999   -1.1313    0.0361 N.pl3   1  LIG1       -0.3535
     23 H           3.1230   -1.2488   -0.4300 H       1  LIG1        0.1425
     24 H           4.7002   -1.6719   -0.4301 H       1  LIG1        0.1425
     25 O           6.7709   -0.0429    0.0195 O.3     1  LIG1       -0.5031
     26 H           7.5230    0.5536    0.0224 H       1  LIG1        0.2923
     27 C           6.1558    4.2788   -0.0580 C.ar    1  LIG1        0.2225
     28 C           6.5000    2.9149   -0.0291 C.ar    1  LIG1        0.0668
     29 C           7.8524    2.5687   -0.0161 C.ar    1  LIG1       -0.0037
     30 C           8.8069    3.5872   -0.0327 C.ar    1  LIG1        0.1436
     31 C           8.3640    4.9223   -0.0617 C.ar    1  LIG1        0.1179
     32 N           7.0635    5.2741   -0.0743 N.ar    1  LIG1       -0.2087
     33 H           8.1596    1.5135    0.0055 H       1  LIG1        0.0663
     34 O           4.9102    4.6508   -0.0709 O.3     1  LIG1       -0.4919
     35 H           4.3442    3.8754   -0.0741 H       1  LIG1        0.2937
     36 O          10.0785    3.3167   -0.0218 O.3     1  LIG1       -0.5046
     37 C          10.2649    1.8989   -0.0179 C.3     2  LIG2       -0.0681
     38 H          11.3115    1.6768   -0.0092 H       1  LIG1        0.0227
     39 H           9.8043    1.4810    0.8528 H       1  LIG1        0.0227
     40 H           9.8183    1.4780   -0.8944 H       1  LIG1        0.0227
     41 C          10.5985    5.6371   -0.0645 C.ar    1  LIG1        0.0543
     42 C          11.4785    6.7365   -0.0814 C.ar    1  LIG1       -0.0292
     43 C           9.2144    5.9053   -0.0778 C.ar    1  LIG1        0.0281
     44 C          11.0037    8.0458   -0.1109 C.ar    1  LIG1        0.0059
     45 H          12.5505    6.5521   -0.0713 H       1  LIG1        0.0643
     46 C           8.7398    7.2122   -0.1073 C.ar    1  LIG1       -0.0293
     47 C           9.6301    8.2910   -0.1242 C.ar    1  LIG1        0.0331
     48 H           7.6680    7.3931   -0.1170 H       1  LIG1        0.0643
     49 N          11.1012    4.4386   -0.0373 N.pl3   1  LIG1       -0.2659
     50 H          10.4810    3.8063   -0.5016 H       1  LIG1        0.2922
     51 H          11.9869    4.4380   -0.5017 H       1  LIG1        0.1699
     52 N           9.1807    9.5106   -0.1516 N.pl3   1  LIG1       -0.3575
     53 H           9.8350   10.0962   -0.6299 H       1  LIG1        0.1423
     54 H           8.3028    9.5316   -0.6299 H       1  LIG1        0.1423
     55 C          13.2311    8.7820   -0.1334 C.ar    1  LIG1        0.0603
     56 C          14.1005    9.8898   -0.1482 C.ar    1  LIG1       -0.0328
     57 C          11.8445    9.0371   -0.1260 C.ar    1  LIG1        0.0031
     58 C          13.6130   11.1948   -0.1559 C.ar    1  LIG1        0.0238
     59 H          15.1742    9.7156   -0.1539 H       1  LIG1        0.0638
     60 C          11.3573   10.3396   -0.1337 C.ar    1  LIG1       -0.0314
     61 C          12.2371   11.4270   -0.1488 C.ar    1  LIG1        0.0345
     62 H          10.2838   10.5103   -0.1277 H       1  LIG1        0.0643
     63 N          14.1991    6.5351   -0.1214 N.1     1  LIG1       -0.1908
     64 C          13.7455    7.5881   -0.1270 C.1     1  LIG1        0.0998
     65 N          11.7759   12.6424   -0.1559 N.pl3   1  LIG1       -0.3574
     66 H          12.4219   13.2413   -0.6291 H       1  LIG1        0.1423
     67 H          10.8952   12.6620   -0.6291 H       1  LIG1        0.1423
     68 C          14.4442   12.1942   -0.1697 C.ar    1  LIG1        0.0921
     69 C          15.8035   12.2108   -0.1794 C.ar    1  LIG1        0.1582
     70 C          16.2144   13.5826   -0.1921 C.ar    1  LIG1        0.0949
     71 C          15.0881   14.3439   -0.1913 C.ar    1  LIG1        0.1031
     72 N          14.0021   13.4979   -0.1772 N.ar    1  LIG1       -0.3478
     73 H          13.0500   13.7832   -0.1736 H       1  LIG1        0.1661
     74 O          16.5834   11.1707   -0.1761 O.3     1  LIG1       -0.5035
     75 H          17.4997   11.4573   -0.1753 H       1  LIG1        0.2923
     76 C          17.4376   14.0226   -0.2028 C.1     1  LIG1       -0.0637
     77 C          18.5679   14.4291   -0.2127 C.1     1  LIG1       -0.1137
     78 H          19.5747   14.7913   -0.2216 H       1  LIG1        0.1232
     79 C          14.9432   15.6357   -0.2003 C.ar    1  LIG1        0.1723
     80 C          15.7949   16.7209   -0.1923 C.ar    1  LIG1        0.1202
     81 C          14.9598   17.9038   -0.2118 C.ar    1  LIG1        0.0909
     82 C          13.6526   17.4627   -0.2304 C.ar    1  LIG1        0.1772
     83 O          13.6164   16.0679   -0.2239 O.2     1  LIG1       -0.4485
     84 N          18.2411   16.7043   -0.1530 N.1     1  LIG1       -0.1907
     85 C          17.0947   16.7121   -0.1714 C.1     1  LIG1        0.1049
     86 N          15.3858   19.1320   -0.2113 N.pl3   1  LIG1       -0.3540
     87 H          16.2664   19.1795   -0.6826 H       1  LIG1        0.1425
     88 H          14.7236   19.7146   -0.6826 H       1  LIG1        0.1425
     89 C          12.4835   18.0309   -0.2521 C.ar    1  LIG1        0.1261
     90 C          12.1427   19.3468   -0.2671 C.ar    1  LIG1        0.1483
     91 C          10.7126   19.4179   -0.2877 C.ar    1  LIG1       -0.0018
     92 C          10.2425   18.1423   -0.2861 C.ar    1  LIG1        0.0058
     93 N          11.3234   17.2900   -0.2638 N.ar    1  LIG1       -0.3553
     94 H          11.2739   16.2973   -0.2579 H       1  LIG1        0.1655
     95 H           9.0227   17.6928   -0.3005 H       1  LIG1        0.0808
     96 O          12.9662   20.3527   -0.2620 O.3     1  LIG1       -0.4929
     97 C          14.3116   19.8681   -0.2602 C.3     1  LIG1        0.0789
     98 H          14.9890   20.6963   -0.2562 H       1  LIG1        0.0660
     99 H          14.4741   19.2701    0.6122 H       1  LIG1        0.0660
    100 H          14.4783   19.2752   -1.1351 H       1  LIG1        0.0660
    101 H           9.9931   20.5005   -0.3052 H       1  LIG1        0.0669
@<TRIPOS>BOND
     1   100    97    1
     2    12    10    1
     3    40    37    1
     4    88    86    1
     5    87    86    1
     6    54    52    1
     7    53    52    1
     8    67    65    1
     9    66    65    1
    10    51    49    1
    11    50    36    1
    12    24    22    1
    13    23    22    1
    14   101    91    1
    15    95    92    1
    16    91    92   ar
    17    91    90   ar
    18    92    93   ar
    19    90    96    1
    20    90    89   ar
    21    93    94    1
    22    93    89   ar
    23    96    97    1
    24    97    98    1
    25    97    99    1
    26    89    82    1
    27    82    83   ar
    28    82    81   ar
    29    83    79   ar
    30    78    77    1
    31    77    76    3
    32    81    86    1
    33    81    80   ar
    34    76    70    1
    35    79    80   ar
    36    79    71    1
    37    80    85    1
    38    70    71   ar
    39    70    69   ar
    40    71    72   ar
    41    69    74    1
    42    69    68   ar
    43    72    73    1
    44    72    68   ar
    45    74    75    1
    46    85    84    3
    47    68    58    1
    48    58    61   ar
    49    58    56   ar
    50    65    61    1
    51    59    56    1
    52    52    47    1
    53    61    60   ar
    54    56    55   ar
    55    60    62    1
    56    60    57   ar
    57    55    64    1
    58    55    57   ar
    59    64    63    3
    60    57    44    1
    61    47    44   ar
    62    47    46   ar
    63    48    46    1
    64    44    42   ar
    65    46    43   ar
    66    42    45    1
    67    42    41   ar
    68    43    41   ar
    69    43    31    1
    70    32    31   ar
    71    32    27   ar
    72    35    34    1
    73    34    27    1
    74    41    49    1
    75    31    30   ar
    76    27    28   ar
    77    21    20    1
    78    30    36    1
    79    30    29   ar
    80    28    29   ar
    81    28    19    1
    82    20    19   ar
    83    20    16   ar
    84    37    38    1
    85    37    39    1
    86    29    33    1
    87    19    18   ar
    88    14    15    3
    89    15     7    1
    90     7     6   ar
    91     7     4   ar
    92    16     4    1
    93    16    17   ar
    94     6     8    1
    95     6     3   ar
    96     4     2   ar
    97     1     2   ar
    98     1     3   ar
    99     1    10    1
   100     2     5    1
   101     3     9    1
   102    10    13    1
   103    10    11    1
   104    18    17   ar
   105    18    25    1
   106    17    22    1
   107    25    26    1
