@<TRIPOS>MOLECULE
mol_data/noopt/geoms/mol2/4id12fh12hh13hd-12ld-4af-13ae13il-.out
 96 98 0 0 0
SMALL
GASTEIGER

@<TRIPOS>ATOM
      1 C           0.0509    0.0309    0.0002 C.2     1  LIG1       -0.0500
      2 C           1.4592    0.0309    0.0002 C.2     1  LIG1       -0.0504
      3 C          -0.6045    1.2792    0.0002 C.2     1  LIG1       -0.0586
      4 C           2.1849    1.2200   -0.0004 C.2     1  LIG1        0.0225
      5 H           1.9850   -0.9213    0.0004 H       1  LIG1        0.0625
      6 C           0.1195    2.4666   -0.0004 C.3     2  LIG2        0.0000
      7 C           1.5181    2.4458   -0.0008 C.3     1  LIG1        0.1342
      8 H          -0.4090    3.4165   -0.0003 H       0  HOH0        0.2528
      9 H          -1.9035    1.3287    0.0016 H       1  LIG1        0.0620
     10 C          -0.5710   -1.1111    0.0005 C.3     1  LIG1       -0.0397
     11 H           0.0257   -1.8420    0.5050 H       1  LIG1        0.0278
     12 H          -0.7416   -1.4245   -1.0083 H       1  LIG1        0.0278
     13 H          -1.5088   -1.0063    0.5049 H       1  LIG1        0.0278
     14 N           2.7818    4.5408   -0.0016 N.1     1  LIG1       -0.1955
     15 C           2.1896    3.5590   -0.0012 C.1     1  LIG1        0.0781
     16 C           3.4844    1.1831   -0.0005 C.ar    1  LIG1        0.1766
     17 C           4.4399    0.1881   -0.0006 C.ar    1  LIG1        0.1843
     18 C           5.7279    0.8499   -0.0007 C.ar    1  LIG1        0.1169
     19 C           5.4738    2.2061   -0.0008 C.ar    1  LIG1        0.1967
     20 O           4.0977    2.4367   -0.0007 O.2     1  LIG1       -0.4462
     21 O           4.2495   -1.0979   -0.0005 O.3     1  LIG1       -0.5020
     22 H           5.0978   -1.5474   -0.0004 H       1  LIG1        0.2924
     23 N           6.8846    0.2566   -0.0008 N.pl3   1  LIG1       -0.3521
     24 H           6.8084   -0.6220   -0.4722 H       1  LIG1        0.1425
     25 H           7.5538    0.8309   -0.4722 H       1  LIG1        0.1425
     26 C           6.1999    3.2844   -0.0008 C.ar    1  LIG1        0.1950
     27 C           7.5515    3.5599    0.0139 C.ar    1  LIG1        0.0958
     28 C           7.6810    5.0021    0.0032 C.ar    1  LIG1        0.0942
     29 C           6.3993    5.5125   -0.0175 C.ar    1  LIG1        0.1761
     30 O           5.4687    4.4730   -0.0205 O.2     1  LIG1       -0.4463
     31 N           8.5363    2.7115    0.0338 N.pl3   1  LIG1       -0.3535
     32 H           8.2613    1.8707   -0.4325 H       1  LIG1        0.1425
     33 H           9.3271    3.1078   -0.4325 H       1  LIG1        0.1425
     34 N           8.8009    5.6624    0.0117 N.pl3   1  LIG1       -0.3535
     35 H           9.5053    5.1298   -0.4575 H       1  LIG1        0.1425
     36 H           8.6760    6.5365   -0.4575 H       1  LIG1        0.1425
     37 C           5.8764    6.7026   -0.0343 C.ar    1  LIG1        0.1058
     38 C           6.4685    7.9262   -0.0295 C.ar    1  LIG1        0.0592
     39 C           5.4248    8.9064   -0.0542 C.ar    1  LIG1        0.0280
     40 C           4.2409    8.2387   -0.0748 C.ar    1  LIG1        0.0935
     41 N           4.5127    6.8892   -0.0623 N.ar    1  LIG1       -0.3475
     42 H           3.8324    6.1645   -0.0725 H       1  LIG1        0.1662
     43 N           7.7471    8.1597   -0.0052 N.pl3   1  LIG1       -0.3560
     44 H           8.2303    7.4179   -0.4703 H       1  LIG1        0.1424
     45 H           7.9370    9.0243   -0.4703 H       1  LIG1        0.1424
     46 N           5.7119   11.3361   -0.0595 N.3     1  LIG1       -0.2406
     47 C           5.5774   10.1975   -0.0570 C.3     1  LIG1        0.1132
     48 C           3.0205    8.6859   -0.1010 C.ar    1  LIG1        0.1999
     49 C           2.4302    9.9325   -0.1208 C.ar    1  LIG1        0.2437
     50 C           0.9991    9.7135   -0.1463 C.ar    1  LIG1        0.1447
     51 C           0.8096    8.3468   -0.1405 C.ar    1  LIG1        0.1570
     52 O           2.0412    7.6916   -0.1128 O.2     1  LIG1       -0.4480
     53 O           3.0188   11.0917   -0.1176 O.3     1  LIG1       -0.2824
     54 C           4.4368   10.9070   -0.1165 C.3     3  LIG3       -0.0531
     55 H           4.9208   11.8613   -0.1140 H       1  LIG1        0.1417
     56 H           4.7245   10.3590    0.7564 H       2  LIG2        0.0265
     57 H           4.7263   10.3626   -0.9909 H       2  LIG2        0.0265
     58 N          -0.7106   11.4630   -0.1908 N.1     1  LIG1       -0.1906
     59 C           0.0906   10.6431   -0.1699 C.1     1  LIG1        0.1069
     60 C          -1.5229    8.0952   -0.1400 C.ar    1  LIG1       -0.0504
     61 C          -2.6057    7.1949   -0.1546 C.ar    1  LIG1       -0.0514
     62 C          -0.2208    7.5545   -0.1545 C.ar    1  LIG1        0.0193
     63 C          -2.4035    5.8169   -0.1830 C.ar    1  LIG1        0.0061
     64 H          -3.6188    7.5908   -0.1436 H       1  LIG1        0.0624
     65 C          -0.0184    6.1789   -0.1829 C.ar    1  LIG1       -0.0427
     66 C          -1.1071    5.3009   -0.1974 C.ar    1  LIG1       -0.0075
     67 H           0.9953    5.7865   -0.1935 H       1  LIG1        0.0631
     68 H          -1.7747    9.3703   -0.1138 H       1  LIG1        0.0625
     69 O          -0.9118    4.0158   -0.2237 O.3     4  HOH4       -0.2528
     70 H           0.0311    3.8352   -0.2302 H       5  UNK5        0.0000
     71 C          -3.4263    5.0146   -0.1959 C.ar    1  LIG1        0.0487
     72 C          -4.7587    5.2842   -0.2050 C.ar    1  LIG1       -0.0203
     73 C          -5.4488    4.0295   -0.2168 C.ar    1  LIG1        0.0519
     74 C          -4.5079    3.0484   -0.2161 C.ar    1  LIG1        0.0793
     75 N          -3.2683    3.6471   -0.2028 N.ar    1  LIG1       -0.3520
     76 H          -2.3973    3.1680   -0.1995 H       1  LIG1        0.1660
     77 H          -5.3025    6.4650   -0.2019 H       1  LIG1        0.0651
     78 C          -6.7372    3.8566   -0.2268 C.1     1  LIG1       -0.0675
     79 C          -7.9277    3.6968   -0.2360 C.1     1  LIG1       -0.1138
     80 H          -8.9882    3.5544   -0.2442 H       1  LIG1        0.1232
     81 C          -4.6378    1.7549   -0.2245 C.ar    1  LIG1        0.0706
     82 C          -5.7553    0.9809   -0.2305 C.ar    1  LIG1        0.0179
     83 C          -5.3286   -0.3861   -0.2377 C.ar    1  LIG1        0.1408
     84 C          -3.9692   -0.3872   -0.2375 C.ar    1  LIG1        0.0447
     85 N          -3.5421    0.9215   -0.2289 N.ar    1  LIG1       -0.3562
     86 H          -2.5933    1.2177   -0.2270 H       1  LIG1        0.1655
     87 H          -3.1265   -1.3770   -0.2428 H       1  LIG1        0.0844
     88 C          -6.9838    1.4069   -0.2285 C.3     1  LIG1       -0.0342
     89 H          -7.6063    0.6980    0.2765 H       1  LIG1        0.0279
     90 H          -7.3224    1.5242   -1.2368 H       1  LIG1        0.0279
     91 H          -7.0338    2.3489    0.2764 H       1  LIG1        0.0279
     92 O          -6.0965   -1.4351   -0.2438 O.3     1  LIG1       -0.4933
     93 C          -7.4661   -1.0240   -0.2462 C.3     1  LIG1        0.0789
     94 H          -8.0978   -1.8877   -0.2513 H       1  LIG1        0.0660
     95 H          -7.6653   -0.4418    0.6293 H       1  LIG1        0.0660
     96 H          -7.6603   -0.4349   -1.1180 H       1  LIG1        0.0660
@<TRIPOS>BOND
     1    90    88    1
     2    96    93    1
     3    12    10    1
     4    57    54    1
     5    25    23    1
     6    24    23    1
     7    45    43    1
     8    44    43    1
     9    36    34    1
    10    35    34    1
    11    33    31    1
    12    32    31    1
    13    94    93    1
    14    93    92    1
    15    93    95    1
    16    80    79    1
    17    92    83    1
    18    87    84    1
    19    83    84   ar
    20    83    82   ar
    21    84    85   ar
    22    79    78    3
    23    82    88    1
    24    82    81   ar
    25    85    86    1
    26    85    81   ar
    27    88    91    1
    28    88    89    1
    29    78    73    1
    30    81    74    1
    31    69     8    1
    32    73    74   ar
    33    73    72   ar
    34    74    75   ar
    35    72    77    1
    36    72    71   ar
    37    75    76    1
    38    75    71   ar
    39    66    63   ar
    40    66    65   ar
    41    71    63    1
    42    67    65    1
    43    58    59    3
    44    63    61   ar
    45    65    62   ar
    46    59    50    1
    47    61    64    1
    48    61    60   ar
    49    62    51    1
    50    62    60   ar
    51    50    51   ar
    52    50    49   ar
    53    51    52   ar
    54    60    68    1
    55    49    53    1
    56    49    48   ar
    57    54    56    1
    58    55    46    1
    59    52    48   ar
    60    48    40    1
    61    40    41   ar
    62    40    39   ar
    63    42    41    1
    64    41    37   ar
    65    46    47    1
    66    47    39    1
    67    39    38   ar
    68    37    38   ar
    69    37    29    1
    70    38    43    1
    71    30    29   ar
    72    30    26   ar
    73    29    28   ar
    74    14    15    3
    75    15     7    1
    76    26    19    1
    77    26    27   ar
    78     7     4    1
    79    23    18    1
    80    19    20   ar
    81    19    18   ar
    82    20    16   ar
    83    18    17   ar
    84    17    16   ar
    85    17    21    1
    86    16     4    1
    87    21    22    1
    88     4     2    2
    89     3     1    2
    90     3     9    1
    91     1     2    1
    92     1    10    1
    93     2     5    1
    94    10    13    1
    95    10    11    1
    96    28    34    1
    97    28    27   ar
    98    27    31    1
