@<TRIPOS>MOLECULE
mol_data/noopt/geoms/mol2/4id4lh(310)4il(170)6ai(240).out
 61 64 0 0 0
SMALL
GASTEIGER

@<TRIPOS>ATOM
      1 C           0.0509    0.0309    0.0002 C.ar    1  LIG1       -0.0498
      2 C           1.4592    0.0309    0.0002 C.ar    1  LIG1       -0.0498
      3 C          -0.6045    1.2792    0.0002 C.ar    1  LIG1       -0.0576
      4 C           2.1849    1.2200   -0.0004 C.ar    1  LIG1        0.0033
      5 H           1.9850   -0.9213    0.0004 H       1  LIG1        0.0627
      6 C           0.1195    2.4666   -0.0004 C.ar    1  LIG1       -0.0435
      7 C           1.5181    2.4458   -0.0008 C.ar    1  LIG1        0.0596
      8 H          -0.4090    3.4165   -0.0003 H       1  LIG1        0.0631
      9 H          -1.9035    1.3287    0.0016 H       1  LIG1        0.0621
     10 C          -0.5710   -1.1111    0.0005 C.3     1  LIG1       -0.0397
     11 H           0.0257   -1.8420    0.5050 H       1  LIG1        0.0278
     12 H          -0.7416   -1.4245   -1.0083 H       1  LIG1        0.0278
     13 H          -1.5088   -1.0063    0.5049 H       1  LIG1        0.0278
     14 N           2.7818    4.5408   -0.0016 N.1     1  LIG1       -0.1909
     15 C           2.1896    3.5590   -0.0012 C.1     1  LIG1        0.0998
     16 C           4.1641    0.3771   -0.9365 C.ar    1  LIG1        0.1285
     17 C           5.5718    0.3705   -0.8945 C.ar    1  LIG1       -0.0099
     18 C           3.4843    1.1831   -0.0005 C.ar    1  LIG1        0.0268
     19 C           6.2736    1.1323    0.0369 C.ar    1  LIG1        0.0066
     20 H           6.1161   -0.2446   -1.6076 H       1  LIG1        0.0661
     21 C           4.1845    1.9439    0.9296 C.ar    1  LIG1       -0.0292
     22 C           5.5829    1.9242    0.9551 C.ar    1  LIG1        0.0332
     23 H           3.6375    2.5573    1.6410 H       1  LIG1        0.0643
     24 O           3.5652   -0.3545   -1.8287 O.3     1  LIG1       -0.4945
     25 C           2.3023    0.2308   -2.1564 C.3     1  LIG1        0.0788
     26 H           1.8097   -0.3716   -2.8909 H       1  LIG1        0.0660
     27 H           1.6961    0.2869   -1.2764 H       1  LIG1        0.0660
     28 H           2.4558    1.2150   -2.5470 H       1  LIG1        0.0660
     29 N           6.2321    2.6373    1.8269 N.pl3   1  LIG1       -0.3575
     30 H           7.2151    2.5043    1.7007 H       1  LIG1        0.1423
     31 H           6.0076    3.6036    1.7007 H       1  LIG1        0.1423
     32 C           8.3013    2.2902    0.2644 C.ar    1  LIG1       -0.0419
     33 C           9.7071    2.2054    0.2649 C.ar    1  LIG1       -0.0470
     34 C           7.5732    1.1025    0.0473 C.ar    1  LIG1       -0.0096
     35 C          10.3610    0.9927    0.0590 C.ar    1  LIG1        0.0255
     36 H          10.2883    3.1098    0.4303 H       1  LIG1        0.0628
     37 C           8.2255   -0.1084   -0.1582 C.ar    1  LIG1       -0.0113
     38 C           9.6228   -0.1722   -0.1538 C.ar    1  LIG1        0.1284
     39 H           7.6417   -1.0103   -0.3236 H       1  LIG1        0.0660
     40 C           7.7482    3.4502    0.4624 C.3     1  LIG1       -0.0391
     41 H           6.8410    3.3231    1.0152 H       1  LIG1        0.0278
     42 H           7.5303    3.9070   -0.4804 H       1  LIG1        0.0278
     43 H           8.4182    4.0751    1.0151 H       1  LIG1        0.0278
     44 O          10.2272   -1.3070   -0.3466 O.3     1  LIG1       -0.4945
     45 C           9.2592   -2.3572   -0.4175 C.3     1  LIG1        0.0788
     46 H           9.7570   -3.2909   -0.5764 H       1  LIG1        0.0660
     47 H           8.7092   -2.3978    0.4994 H       1  LIG1        0.0660
     48 H           8.5872   -2.1688   -1.2285 H       1  LIG1        0.0660
     49 C          12.3459    0.3207    1.1207 C.ar    1  LIG1        0.0354
     50 C          11.6603    0.9507    0.0660 C.ar    1  LIG1        0.0040
     51 C          12.4061    1.5248   -0.9651 C.ar    1  LIG1       -0.0481
     52 C          13.7990    1.4512   -0.9085 C.ar    1  LIG1       -0.0318
     53 C          14.3930    0.8000    0.1881 C.ar    1  LIG1        0.0305
     54 N          13.6888    0.2405    1.1913 N.ar    1  LIG1       -0.2624
     55 H          11.9056    2.0265   -1.8054 H       1  LIG1        0.0627
     56 H          15.6858    0.7056    0.2856 H       1  LIG1        0.0832
     57 H          11.6955   -0.2283    2.1033 H       1  LIG1        0.0836
     58 C          14.5381    1.9704   -1.8438 C.3     1  LIG1       -0.0383
     59 H          14.5357    3.0363   -1.7500 H       1  LIG1        0.0278
     60 H          14.1470    1.6958   -2.8012 H       1  LIG1        0.0278
     61 H          15.5399    1.6064   -1.7500 H       1  LIG1        0.0278
@<TRIPOS>BOND
     1    26    25    1
     2    60    58    1
     3    28    25    1
     4    25    24    1
     5    25    27    1
     6    58    61    1
     7    58    59    1
     8    58    52    1
     9    24    16    1
    10    55    51    1
    11    20    17    1
    12    48    45    1
    13    12    10    1
    14    51    52   ar
    15    51    50   ar
    16    16    17   ar
    17    16    18   ar
    18    52    53   ar
    19    17    19   ar
    20    46    45    1
    21    42    40    1
    22    45    44    1
    23    45    47    1
    24    44    38    1
    25    39    37    1
    26    37    38   ar
    27    37    34   ar
    28    38    35   ar
    29    14    15    3
    30    15     7    1
    31     7     6   ar
    32     7     4   ar
    33    18     4    1
    34    18    21   ar
    35     6     8    1
    36     6     3   ar
    37     4     2   ar
    38     1     2   ar
    39     1     3   ar
    40     1    10    1
    41     2     5    1
    42     3     9    1
    43    10    13    1
    44    10    11    1
    45    19    34    1
    46    19    22   ar
    47    34    32   ar
    48    35    50    1
    49    35    33   ar
    50    50    49   ar
    51    53    56    1
    52    53    54   ar
    53    32    33   ar
    54    32    40    1
    55    33    36    1
    56    40    43    1
    57    40    41    1
    58    21    22   ar
    59    21    23    1
    60    22    29    1
    61    49    54   ar
    62    49    57    1
    63    31    29    1
    64    30    29    1
