@<TRIPOS>MOLECULE
mol_data/noopt/geoms/mol2/4id6fa(340)6ha(350)13di(270).out
 49 52 0 0 0
SMALL
GASTEIGER

@<TRIPOS>ATOM
      1 C           0.0509    0.0309    0.0002 C.ar    1  LIG1       -0.0498
      2 C           1.4592    0.0309    0.0002 C.ar    1  LIG1       -0.0497
      3 C          -0.6045    1.2792    0.0002 C.ar    1  LIG1       -0.0576
      4 C           2.1849    1.2200   -0.0004 C.ar    1  LIG1        0.0048
      5 H           1.9850   -0.9213    0.0004 H       1  LIG1        0.0627
      6 C           0.1195    2.4666   -0.0004 C.ar    1  LIG1       -0.0435
      7 C           1.5181    2.4458   -0.0008 C.ar    1  LIG1        0.0596
      8 H          -0.4090    3.4165   -0.0003 H       1  LIG1        0.0631
      9 H          -1.9035    1.3287    0.0016 H       1  LIG1        0.0621
     10 C          -0.5710   -1.1111    0.0005 C.3     1  LIG1       -0.0397
     11 H           0.0257   -1.8420    0.5050 H       1  LIG1        0.0278
     12 H          -0.7416   -1.4245   -1.0083 H       1  LIG1        0.0278
     13 H          -1.5088   -1.0063    0.5049 H       1  LIG1        0.0278
     14 N           2.7818    4.5408   -0.0016 N.1     1  LIG1       -0.1909
     15 C           2.1896    3.5590   -0.0012 C.1     1  LIG1        0.0998
     16 C           4.2276    2.3033    0.4145 C.ar    1  LIG1        0.2208
     17 C           3.4844    1.1831   -0.0005 C.ar    1  LIG1        0.0448
     18 C           4.1735    0.0397   -0.4089 C.ar    1  LIG1       -0.0469
     19 C           5.5693    0.0536   -0.3894 C.ar    1  LIG1       -0.0348
     20 C           6.2233    1.2222    0.0420 C.ar    1  LIG1        0.0781
     21 N           5.5742    2.3339    0.4395 N.ar    1  LIG1       -0.2124
     22 H           3.6269   -0.8544   -0.7407 H       1  LIG1        0.0626
     23 O           3.6312    3.3909    0.8036 O.3     1  LIG1       -0.4920
     24 H           2.6907    3.2238    0.8995 H       1  LIG1        0.2937
     25 H           6.2569   -0.9856   -0.7601 H       1  LIG1        0.0639
     26 C           8.1690    2.5112    0.3082 C.ar    1  LIG1        0.1261
     27 C           7.5213    1.2837    0.0779 C.ar    1  LIG1        0.0400
     28 C           8.3031    0.1423   -0.1093 C.ar    1  LIG1       -0.0472
     29 C           9.6928    0.2642   -0.0609 C.ar    1  LIG1       -0.0335
     30 C          10.2475    1.5355    0.1752 C.ar    1  LIG1        0.0905
     31 N           9.5084    2.6470    0.3581 N.ar    1  LIG1       -0.2303
     32 H           7.8326   -0.8341   -0.2927 H       1  LIG1        0.0626
     33 N           7.4843    3.6015    0.4883 N.pl3   1  LIG1       -0.3426
     34 H           7.9655    4.3706    0.0677 H       1  LIG1        0.1437
     35 H           6.5826    3.5022    0.0676 H       1  LIG1        0.1437
     36 H          10.4643   -0.7685   -0.2292 H       1  LIG1        0.0640
     37 C          11.5360    1.6997    0.2293 C.ar    1  LIG1        0.0828
     38 C          12.4527    1.8172   -0.7676 C.ar    1  LIG1        0.0813
     39 C          13.7355    1.9793   -0.1520 C.ar    1  LIG1       -0.0151
     40 C          13.5460    1.9556    1.1940 C.ar    1  LIG1        0.0064
     41 N          12.2009    1.7841    1.4318 N.ar    1  LIG1       -0.3582
     42 H          11.7770    1.7305    2.3292 H       1  LIG1        0.1654
     43 H          14.4000    2.0638    2.1681 H       1  LIG1        0.0810
     44 N          11.9896    1.7583   -3.1692 N.1     1  LIG1       -0.1908
     45 C          12.2066    1.7859   -2.0437 C.1     1  LIG1        0.1016
     46 C          14.8736    2.1234   -0.7641 C.3     1  LIG1       -0.0371
     47 H          15.3117    3.0595   -0.4869 H       1  LIG1        0.0278
     48 H          14.7147    2.1033   -1.8221 H       1  LIG1        0.0278
     49 H          15.5311    1.3260   -0.4869 H       1  LIG1        0.0278
@<TRIPOS>BOND
     1    44    45    3
     2    45    38    1
     3    48    46    1
     4    12    10    1
     5    38    39   ar
     6    38    37   ar
     7    46    49    1
     8    46    47    1
     9    46    39    1
    10    25    19    1
    11    22    18    1
    12    18    19   ar
    13    18    17   ar
    14    19    20   ar
    15    32    28    1
    16    36    29    1
    17    39    40   ar
    18    28    29   ar
    19    28    27   ar
    20    29    30   ar
    21    14    15    3
    22    15     7    1
    23     7     4   ar
    24     7     6   ar
    25    17     4    1
    26    17    16   ar
    27     4     2   ar
    28     6     8    1
    29     6     3   ar
    30     3     1   ar
    31     3     9    1
    32     2     1   ar
    33     2     5    1
    34     1    10    1
    35    10    13    1
    36    10    11    1
    37    20    27    1
    38    20    21   ar
    39    35    33    1
    40    34    33    1
    41    27    26   ar
    42    30    37    1
    43    30    31   ar
    44    37    41   ar
    45    26    31   ar
    46    26    33    1
    47    16    21   ar
    48    16    23    1
    49    23    24    1
    50    40    41   ar
    51    40    43    1
    52    41    42    1
