@<TRIPOS>MOLECULE
mol_data/noopt/geoms/mol2/4ie.out
 17 17 0 0 0
SMALL
GASTEIGER

@<TRIPOS>ATOM
      1 C           0.0509    0.0309    0.0002 C.ar    1  LIG1       -0.0504
      2 C           1.4592    0.0309    0.0002 C.ar    1  LIG1       -0.0577
      3 C          -0.6045    1.2792    0.0002 C.ar    1  LIG1       -0.0577
      4 C           2.1849    1.2200   -0.0004 C.ar    1  LIG1       -0.0461
      5 H           1.9850   -0.9213    0.0004 H       1  LIG1        0.0621
      6 C           0.1195    2.4666   -0.0004 C.ar    1  LIG1       -0.0461
      7 C           1.5181    2.4458   -0.0008 C.ar    1  LIG1        0.0247
      8 H          -0.4090    3.4165   -0.0003 H       1  LIG1        0.0630
      9 H           3.4844    1.1831   -0.0005 H       1  LIG1        0.0630
     10 H          -1.9035    1.3287    0.0016 H       1  LIG1        0.0621
     11 C          -0.5710   -1.1111    0.0005 C.3     1  LIG1       -0.0397
     12 H           0.0257   -1.8420    0.5050 H       1  LIG1        0.0278
     13 H          -0.7416   -1.4245   -1.0083 H       1  LIG1        0.0278
     14 H          -1.5088   -1.0063    0.5049 H       1  LIG1        0.0278
     15 C           2.1896    3.5590   -0.0012 C.1     1  LIG1       -0.0697
     16 C           2.8100    4.5875   -0.0016 C.1     1  LIG1       -0.1139
     17 H           3.3627    5.5037   -0.0019 H       1  LIG1        0.1232
@<TRIPOS>BOND
     1    13    11    1
     2    17    16    1
     3    16    15    3
     4    15     7    1
     5     7     6   ar
     6     7     4   ar
     7     9     4    1
     8     6     8    1
     9     6     3   ar
    10     4     2   ar
    11     1     3   ar
    12     1     2   ar
    13     1    11    1
    14     3    10    1
    15     2     5    1
    16    11    14    1
    17    11    12    1
