@<TRIPOS>MOLECULE
mol_data/noopt/geoms/mol2/4ie13fh6ae-13hl.out
 53 56 0 0 0
SMALL
GASTEIGER

@<TRIPOS>ATOM
      1 C           0.0509    0.0309    0.0002 C.ar    1  LIG1       -0.0498
      2 C           1.4592    0.0309    0.0002 C.ar    1  LIG1       -0.0484
      3 C          -0.6045    1.2792    0.0002 C.ar    1  LIG1       -0.0576
      4 C           2.1849    1.2200   -0.0004 C.ar    1  LIG1        0.0176
      5 H           1.9850   -0.9213    0.0004 H       1  LIG1        0.0627
      6 C           0.1195    2.4666   -0.0004 C.ar    1  LIG1       -0.0454
      7 C           1.5181    2.4458   -0.0008 C.ar    1  LIG1        0.0339
      8 H          -0.4090    3.4165   -0.0003 H       1  LIG1        0.0630
      9 H          -1.9035    1.3287    0.0016 H       1  LIG1        0.0621
     10 C          -0.5710   -1.1111    0.0005 C.3     1  LIG1       -0.0397
     11 H           0.0257   -1.8420    0.5050 H       1  LIG1        0.0278
     12 H          -0.7416   -1.4245   -1.0083 H       1  LIG1        0.0278
     13 H          -1.5088   -1.0063    0.5049 H       1  LIG1        0.0278
     14 C           2.1896    3.5590   -0.0012 C.1     1  LIG1       -0.0690
     15 C           2.8100    4.5875   -0.0016 C.1     1  LIG1       -0.1139
     16 H           3.3627    5.5037   -0.0019 H       1  LIG1        0.1232
     17 C           3.4844    1.1831   -0.0005 C.ar    1  LIG1        0.0920
     18 C           4.3366    0.1240   -0.0009 C.ar    1  LIG1        0.1635
     19 C           5.6695    0.6476    0.0003 C.ar    1  LIG1        0.0929
     20 C           5.5731    2.0036   -0.0004 C.ar    1  LIG1        0.0730
     21 N           4.2371    2.3357   -0.0004 N.ar    1  LIG1       -0.3497
     22 H           3.8737    3.2609   -0.0009 H       1  LIG1        0.1661
     23 O           3.9998   -1.1317   -0.0008 O.3     1  LIG1       -0.5031
     24 H           4.7909   -1.6755   -0.0008 H       1  LIG1        0.2923
     25 N           6.7708   -0.0431    0.0013 N.pl3   1  LIG1       -0.3535
     26 H           6.6197   -0.9121   -0.4698 H       1  LIG1        0.1425
     27 H           7.4873    0.4713   -0.4699 H       1  LIG1        0.1425
     28 C           6.1560    4.2792   -0.0206 C.ar    1  LIG1        0.0376
     29 C           6.5000    2.9152    0.0001 C.ar    1  LIG1        0.0195
     30 C           7.8523    2.5689    0.0214 C.ar    1  LIG1       -0.0336
     31 C           8.8068    3.5874    0.0210 C.ar    1  LIG1        0.0527
     32 C           8.3640    4.9227   -0.0008 C.ar    1  LIG1        0.1043
     33 N           7.0636    5.2747   -0.0213 N.ar    1  LIG1       -0.2516
     34 H           8.1594    1.5136    0.0369 H       1  LIG1        0.0637
     35 H           4.9105    4.6513   -0.0408 H       1  LIG1        0.0836
     36 C          10.0782    3.3170    0.0402 C.1     1  LIG1       -0.0675
     37 C          11.2530    3.0671    0.0578 C.1     1  LIG1       -0.1138
     38 H          12.2995    2.8445    0.0736 H       1  LIG1        0.1232
     39 C           9.2145    5.9060   -0.0020 C.ar    1  LIG1        0.0907
     40 C          10.5737    5.8964    0.0135 C.ar    1  LIG1        0.0940
     41 C          11.0112    7.2599    0.0046 C.ar    1  LIG1        0.1585
     42 C           9.9000    8.0427   -0.0176 C.ar    1  LIG1        0.0463
     43 N           8.7978    7.2179   -0.0213 N.ar    1  LIG1       -0.3549
     44 H           7.8514    7.5214   -0.0362 H       1  LIG1        0.1655
     45 H           9.7802    9.3371   -0.0329 H       1  LIG1        0.0845
     46 N          11.3333    4.8415    0.0342 N.pl3   1  LIG1       -0.3535
     47 H          10.8697    4.0879   -0.4319 H       1  LIG1        0.1425
     48 H          12.1950    5.0420   -0.4319 H       1  LIG1        0.1425
     49 O          12.2427    7.6762    0.0153 O.3     1  LIG1       -0.4918
     50 C          13.1266    6.5521    0.0192 C.3     1  LIG1        0.0789
     51 H          14.1400    6.8952    0.0279 H       1  LIG1        0.0660
     52 H          12.9438    5.9577    0.8900 H       1  LIG1        0.0660
     53 H          12.9572    5.9622   -0.8572 H       1  LIG1        0.0660
@<TRIPOS>BOND
     1    12    10    1
     2    53    50    1
     3    27    25    1
     4    26    25    1
     5    48    46    1
     6    47    46    1
     7    35    28    1
     8    44    43    1
     9    45    42    1
    10    33    28   ar
    11    33    32   ar
    12    43    42   ar
    13    43    39   ar
    14    28    29   ar
    15    42    41   ar
    16    39    32    1
    17    39    40   ar
    18    16    15    1
    19    15    14    3
    20    14     7    1
    21    18    23    1
    22    18    17   ar
    23    18    19   ar
    24    22    21    1
    25    23    24    1
    26    32    31   ar
    27     7     4   ar
    28     7     6   ar
    29    17     4    1
    30    17    21   ar
    31     4     2   ar
    32     6     8    1
    33     6     3   ar
    34    21    20   ar
    35    20    29    1
    36    20    19   ar
    37    29    30   ar
    38     2     1   ar
    39     2     5    1
    40     1     3   ar
    41     1    10    1
    42     3     9    1
    43    19    25    1
    44    10    13    1
    45    10    11    1
    46    41    40   ar
    47    41    49    1
    48    40    46    1
    49    49    50    1
    50    50    51    1
    51    50    52    1
    52    31    30   ar
    53    31    36    1
    54    30    34    1
    55    36    37    3
    56    37    38    1
