@<TRIPOS>MOLECULE
mol_data/noopt/geoms/mol2/4ie12df-4ii-4dh-.out
 55 58 0 0 0
SMALL
GASTEIGER

@<TRIPOS>ATOM
      1 C           0.0509    0.0309    0.0002 C.ar    1  LIG1       -0.0497
      2 C           1.4592    0.0309    0.0002 C.ar    1  LIG1       -0.0469
      3 C          -0.6045    1.2792    0.0002 C.ar    1  LIG1       -0.0576
      4 C           2.1849    1.2200   -0.0004 C.ar    1  LIG1        0.0343
      5 H           1.9850   -0.9213    0.0004 H       1  LIG1        0.0628
      6 C           0.1195    2.4666   -0.0004 C.ar    1  LIG1       -0.0454
      7 C           1.5181    2.4458   -0.0008 C.ar    1  LIG1        0.0354
      8 H          -0.4090    3.4165   -0.0003 H       1  LIG1        0.0630
      9 H          -1.9035    1.3287    0.0016 H       1  LIG1        0.0621
     10 C          -0.5710   -1.1111    0.0005 C.3     1  LIG1       -0.0397
     11 H           0.0257   -1.8420    0.5050 H       1  LIG1        0.0278
     12 H          -0.7416   -1.4245   -1.0083 H       1  LIG1        0.0278
     13 H          -1.5088   -1.0063    0.5049 H       1  LIG1        0.0278
     14 C           2.1896    3.5590   -0.0012 C.1     1  LIG1       -0.0690
     15 C           2.8100    4.5875   -0.0016 C.1     1  LIG1       -0.1139
     16 H           3.3627    5.5037   -0.0019 H       1  LIG1        0.1232
     17 C           3.4844    1.1831   -0.0005 C.ar    1  LIG1        0.1579
     18 C           4.4399    0.1882    0.0142 C.ar    1  LIG1        0.1394
     19 C           5.7279    0.8500    0.0034 C.ar    1  LIG1        0.1810
     20 C           5.4738    2.2059   -0.0172 C.ar    1  LIG1        0.1785
     21 O           4.0977    2.4365   -0.0202 O.2     1  LIG1       -0.4497
     22 N           4.0816   -2.2317    0.0516 N.1     1  LIG1       -0.1906
     23 C           4.2495   -1.0976    0.0341 C.1     1  LIG1        0.1067
     24 O           6.8846    0.2566    0.0119 O.3     1  LIG1       -0.5023
     25 H           7.5827    0.9156    0.0140 H       1  LIG1        0.2923
     26 C           7.6061    3.1843   -0.0211 C.ar    1  LIG1       -0.0391
     27 C           8.3476    4.3815   -0.0388 C.ar    1  LIG1       -0.0501
     28 C           6.1998    3.2841   -0.0341 C.ar    1  LIG1        0.0242
     29 C           7.7187    5.6242   -0.0687 C.ar    1  LIG1       -0.0134
     30 H           9.4339    4.3274   -0.0290 H       1  LIG1        0.0627
     31 C           5.5715    4.5245   -0.0639 C.ar    1  LIG1       -0.0472
     32 C           6.3256    5.7025   -0.0815 C.ar    1  LIG1       -0.0420
     33 H           4.4857    4.5751   -0.0733 H       1  LIG1        0.0627
     34 C           8.2495    2.0547    0.0064 C.3     1  LIG1       -0.0390
     35 H           9.1799    2.1865    0.5182 H       1  LIG1        0.0278
     36 H           8.4367    1.7263   -0.9947 H       1  LIG1        0.0278
     37 H           7.6616    1.3217    0.5182 H       1  LIG1        0.0278
     38 C           5.7326    6.8594   -0.1093 C.3     1  LIG1       -0.0391
     39 H           4.7876    6.7878    0.3874 H       1  LIG1        0.0278
     40 H           5.5797    7.1575   -1.1255 H       1  LIG1        0.0278
     41 H           6.3425    7.5848    0.3874 H       1  LIG1        0.0278
     42 C           9.8414    6.6233   -0.0709 C.ar    1  LIG1        0.0596
     43 C          10.5712    7.8276   -0.0874 C.ar    1  LIG1       -0.0420
     44 C           8.4342    6.7094   -0.0844 C.ar    1  LIG1        0.0015
     45 C           9.9303    9.0642   -0.1167 C.ar    1  LIG1       -0.0398
     46 H          11.6580    7.7841   -0.0771 H       1  LIG1        0.0631
     47 C           7.7939    7.9436   -0.1137 C.ar    1  LIG1       -0.0321
     48 C           8.5365    9.1289   -0.1301 C.ar    1  LIG1        0.0252
     49 H           6.7077    7.9837   -0.1236 H       1  LIG1        0.0642
     50 H          10.6353   10.1564   -0.1314 H       1  LIG1        0.0636
     51 N          11.0726    4.5097   -0.0200 N.1     1  LIG1       -0.1909
     52 C          10.4956    5.5002   -0.0439 C.1     1  LIG1        0.0998
     53 N           7.9324   10.2797   -0.1573 N.pl3   1  LIG1       -0.3579
     54 H           8.5051   10.9455   -0.6356 H       1  LIG1        0.1423
     55 H           7.0592   10.1867   -0.6357 H       1  LIG1        0.1423
@<TRIPOS>BOND
     1    40    38    1
     2    12    10    1
     3    36    34    1
     4    55    53    1
     5    54    53    1
     6    53    48    1
     7    50    45    1
     8    48    45   ar
     9    48    47   ar
    10    49    47    1
    11    45    43   ar
    12    47    44   ar
    13    38    32    1
    14    38    41    1
    15    38    39    1
    16    43    46    1
    17    43    42   ar
    18    44    42   ar
    19    44    29    1
    20    32    29   ar
    21    32    31   ar
    22    33    31    1
    23    42    52    1
    24    29    27   ar
    25    31    28   ar
    26    52    51    3
    27    27    30    1
    28    27    26   ar
    29    28    26   ar
    30    28    20    1
    31    26    34    1
    32    21    20   ar
    33    21    17   ar
    34    20    19   ar
    35    16    15    1
    36    15    14    3
    37    14     7    1
    38     7     4   ar
    39     7     6   ar
    40    17     4    1
    41    17    18   ar
    42     4     2   ar
    43     6     8    1
    44     6     3   ar
    45     2     1   ar
    46     2     5    1
    47     3     1   ar
    48     3     9    1
    49     1    10    1
    50    10    13    1
    51    10    11    1
    52    19    24    1
    53    19    18   ar
    54    34    37    1
    55    34    35    1
    56    24    25    1
    57    18    23    1
    58    23    22    3
