@<TRIPOS>MOLECULE
mol_data/noopt/geoms/mol2/4ie13ei(260)13af(250)6eh(320).out
 52 55 0 0 0
SMALL
GASTEIGER

@<TRIPOS>ATOM
      1 C           0.0509    0.0309    0.0002 C.ar    1  LIG1       -0.0498
      2 C           1.4592    0.0309    0.0002 C.ar    1  LIG1       -0.0485
      3 C          -0.6045    1.2792    0.0002 C.ar    1  LIG1       -0.0576
      4 C           2.1849    1.2200   -0.0004 C.ar    1  LIG1        0.0151
      5 H           1.9850   -0.9213    0.0004 H       1  LIG1        0.0627
      6 C           0.1195    2.4666   -0.0004 C.ar    1  LIG1       -0.0455
      7 C           1.5181    2.4458   -0.0008 C.ar    1  LIG1        0.0338
      8 H          -0.4090    3.4165   -0.0003 H       1  LIG1        0.0630
      9 H          -1.9035    1.3287    0.0016 H       1  LIG1        0.0621
     10 C          -0.5710   -1.1111    0.0005 C.3     1  LIG1       -0.0397
     11 H           0.0257   -1.8420    0.5050 H       1  LIG1        0.0278
     12 H          -0.7416   -1.4245   -1.0083 H       1  LIG1        0.0278
     13 H          -1.5088   -1.0063    0.5049 H       1  LIG1        0.0278
     14 C           2.1896    3.5590   -0.0012 C.1     1  LIG1       -0.0690
     15 C           2.8100    4.5875   -0.0016 C.1     1  LIG1       -0.1139
     16 H           3.3627    5.5037   -0.0019 H       1  LIG1        0.1232
     17 C           3.4844    1.1831   -0.0005 C.ar    1  LIG1        0.0640
     18 C           4.3714    1.3532   -1.0164 C.ar    1  LIG1        0.0535
     19 C           5.6854    1.2089   -0.4656 C.ar    1  LIG1       -0.0078
     20 C           5.5435    0.9586    0.8630 C.ar    1  LIG1        0.0676
     21 N           4.1976    0.9415    1.1519 N.ar    1  LIG1       -0.3518
     22 H           3.8034    0.7809    2.0502 H       1  LIG1        0.1660
     23 C           4.0773    1.5999   -2.2585 C.1     1  LIG1       -0.0673
     24 C           3.8054    1.8278   -3.4061 C.1     1  LIG1       -0.1138
     25 H           3.5633    2.0308   -4.4284 H       1  LIG1        0.1232
     26 C           6.8091    1.3001   -1.1134 C.3     1  LIG1       -0.0365
     27 H           7.2972    2.2163   -0.8537 H       1  LIG1        0.0279
     28 H           6.6165    1.2845   -2.1659 H       1  LIG1        0.0279
     29 H           7.4385    0.4746   -0.8538 H       1  LIG1        0.0279
     30 C           6.4388    0.7559    1.7835 C.ar    1  LIG1        0.0672
     31 C           7.7945    0.8398    1.7289 C.ar    1  LIG1        0.0072
     32 C           8.2959    0.5132    3.0299 C.ar    1  LIG1        0.1427
     33 C           7.2245    0.2459    3.8228 C.ar    1  LIG1        0.0917
     34 N           6.0856    0.3929    3.0636 N.ar    1  LIG1       -0.3500
     35 H           5.1557    0.2588    3.3883 H       1  LIG1        0.1661
     36 H           8.5021    1.1567    0.6855 H       1  LIG1        0.0676
     37 O           9.5445    0.4783    3.3903 O.3     1  LIG1       -0.5046
     38 H           9.8776    1.3742    3.4791 H       1  LIG1        0.2922
     39 C           8.1778    0.3038    5.9690 C.ar    1  LIG1        0.1224
     40 C           7.1666   -0.0953    5.0759 C.ar    1  LIG1        0.0374
     41 C           6.1076   -0.8610    5.5669 C.ar    1  LIG1       -0.0277
     42 C           6.0943   -1.1995    6.9211 C.ar    1  LIG1        0.0436
     43 C           7.1515   -0.7533    7.7352 C.ar    1  LIG1        0.0496
     44 N           8.1809   -0.0137    7.2782 N.ar    1  LIG1       -0.2442
     45 H           5.2998   -1.1921    4.8989 H       1  LIG1        0.0644
     46 H           7.1837   -1.0427    9.0021 H       1  LIG1        0.0849
     47 C           9.1840    1.0177    5.5593 C.1     1  LIG1       -0.0491
     48 C          10.1138    1.6773    5.1807 C.1     1  LIG1       -0.1124
     49 H          10.9420    2.2648    4.8434 H       1  LIG1        0.1232
     50 N           5.1307   -1.9108    7.4266 N.pl3   1  LIG1       -0.3568
     51 H           4.2513   -1.5451    7.1219 H       1  LIG1        0.1424
     52 H           5.2210   -2.8589    7.1219 H       1  LIG1        0.1424
@<TRIPOS>BOND
     1    25    24    1
     2    24    23    3
     3    23    18    1
     4    28    26    1
     5    26    29    1
     6    26    27    1
     7    26    19    1
     8    18    19   ar
     9    18    17   ar
    10    12    10    1
    11    19    20   ar
    12    16    15    1
    13    15    14    3
    14    14     7    1
    15     7     6   ar
    16     7     4   ar
    17    17     4    1
    18    17    21   ar
    19     6     8    1
    20     6     3   ar
    21     4     2   ar
    22     1     2   ar
    23     1     3   ar
    24     1    10    1
    25     2     5    1
    26     3     9    1
    27    10    13    1
    28    10    11    1
    29    36    31    1
    30    20    21   ar
    31    20    30    1
    32    21    22    1
    33    31    30   ar
    34    31    32   ar
    35    30    34   ar
    36    32    37    1
    37    32    33   ar
    38    34    35    1
    39    34    33   ar
    40    37    38    1
    41    33    40    1
    42    49    48    1
    43    45    41    1
    44    40    41   ar
    45    40    39   ar
    46    48    47    3
    47    47    39    1
    48    41    42   ar
    49    39    44   ar
    50    42    50    1
    51    42    43   ar
    52    52    50    1
    53    51    50    1
    54    44    43   ar
    55    43    46    1
