@<TRIPOS>MOLECULE
mol_data/noopt/geoms/mol2/4ie13hi(230)4fd(60)12fl(130).out
 54 57 0 0 0
SMALL
GASTEIGER

@<TRIPOS>ATOM
      1 C           0.0509    0.0309    0.0002 C.ar    1  LIG1       -0.0498
      2 C           1.4592    0.0309    0.0002 C.ar    1  LIG1       -0.0485
      3 C          -0.6045    1.2792    0.0002 C.ar    1  LIG1       -0.0576
      4 C           2.1849    1.2200   -0.0004 C.ar    1  LIG1        0.0157
      5 H           1.9850   -0.9213    0.0004 H       1  LIG1        0.0627
      6 C           0.1195    2.4666   -0.0004 C.ar    1  LIG1       -0.0455
      7 C           1.5181    2.4458   -0.0008 C.ar    1  LIG1        0.0338
      8 H          -0.4090    3.4165   -0.0003 H       1  LIG1        0.0630
      9 H          -1.9035    1.3287    0.0016 H       1  LIG1        0.0621
     10 C          -0.5710   -1.1111    0.0005 C.3     1  LIG1       -0.0397
     11 H           0.0257   -1.8420    0.5050 H       1  LIG1        0.0278
     12 H          -0.7416   -1.4245   -1.0083 H       1  LIG1        0.0278
     13 H          -1.5088   -1.0063    0.5049 H       1  LIG1        0.0278
     14 C           2.1896    3.5590   -0.0012 C.1     1  LIG1       -0.0690
     15 C           2.8100    4.5875   -0.0016 C.1     1  LIG1       -0.1139
     16 H           3.3627    5.5037   -0.0019 H       1  LIG1        0.1232
     17 C           3.4844    1.1831   -0.0005 C.ar    1  LIG1        0.0693
     18 C           4.3857    1.8553   -0.7645 C.ar    1  LIG1        0.0538
     19 C           5.6919    1.4388   -0.3509 C.ar    1  LIG1       -0.0038
     20 C           5.5314    0.5318    0.6488 C.ar    1  LIG1        0.0552
     21 N           4.1814    0.3719    0.8662 N.ar    1  LIG1       -0.3523
     22 H           3.7746   -0.2327    1.5422 H       1  LIG1        0.1660
     23 N           4.1090    2.7158   -1.6988 N.pl3   1  LIG1       -0.3561
     24 H           4.9190    2.8639   -2.2662 H       1  LIG1        0.1424
     25 H           3.3645    2.3640   -2.2662 H       1  LIG1        0.1424
     26 C           6.8248    1.8504   -0.8388 C.3     1  LIG1       -0.0359
     27 H           7.0151    2.8490   -0.5051 H       1  LIG1        0.0279
     28 H           6.7797    1.8341   -1.9078 H       1  LIG1        0.0279
     29 H           7.6117    1.2067   -0.5051 H       1  LIG1        0.0279
     30 C           6.0735   -0.6338    2.6114 C.ar    1  LIG1        0.1267
     31 C           7.0650   -1.3376    3.3219 C.ar    1  LIG1       -0.0075
     32 C           6.4137   -0.1258    1.3409 C.ar    1  LIG1        0.0413
     33 C           8.3394   -1.5289    2.7926 C.ar    1  LIG1        0.0418
     34 H           6.8239   -1.7379    4.3041 H       1  LIG1        0.0662
     35 C           7.6857   -0.3165    0.8120 C.ar    1  LIG1       -0.0310
     36 C           8.6569   -1.0188    1.5332 C.ar    1  LIG1        0.0634
     37 H           7.9236    0.0851   -0.1697 H       1  LIG1        0.0638
     38 O           4.9028   -0.4879    3.1573 O.3     1  LIG1       -0.5061
     39 H           4.5023   -1.3499    3.2919 H       1  LIG1        0.2922
     40 N          10.8916   -1.3481    0.5933 N.1     1  LIG1       -0.1908
     41 C           9.8443   -1.1938    1.0338 C.1     1  LIG1        0.0999
     42 C           9.2305   -2.1837    3.4760 C.ar    1  LIG1        0.1812
     43 C          10.0049   -1.9223    4.5873 C.ar    1  LIG1        0.2054
     44 C          10.8022   -3.1075    4.8253 C.ar    1  LIG1        0.2001
     45 C          10.4619   -4.0149    3.8433 C.ar    1  LIG1        0.1379
     46 O           9.4945   -3.4685    2.9992 O.2     1  LIG1       -0.4553
     47 H          10.8245   -5.2244    3.5339 H       1  LIG1        0.1069
     48 O          10.0334   -0.8351    5.2994 O.3     1  LIG1       -0.5008
     49 H           9.1358   -0.5434    5.4749 H       1  LIG1        0.2924
     50 O          11.6645   -3.2601    5.7862 O.3     1  LIG1       -0.4888
     51 C          11.7461   -4.6436    6.1389 C.3     1  LIG1        0.0791
     52 H          12.4560   -4.7688    6.9297 H       1  LIG1        0.0660
     53 H          10.7859   -4.9860    6.4641 H       1  LIG1        0.0660
     54 H          12.0574   -5.2111    5.2870 H       1  LIG1        0.0660
@<TRIPOS>BOND
     1    25    23    1
     2    24    23    1
     3    28    26    1
     4    23    18    1
     5    12    10    1
     6    26    29    1
     7    26    27    1
     8    26    19    1
     9    18    19   ar
    10    18    17   ar
    11    19    20   ar
    12    37    35    1
    13    16    15    1
    14    15    14    3
    15    14     7    1
    16     7     4   ar
    17     7     6   ar
    18    17     4    1
    19    17    21   ar
    20     4     2   ar
    21     6     8    1
    22     6     3   ar
    23     1     3   ar
    24     1     2   ar
    25     1    10    1
    26     3     9    1
    27     2     5    1
    28    10    13    1
    29    10    11    1
    30    40    41    3
    31    20    21   ar
    32    20    32    1
    33    35    32   ar
    34    35    36   ar
    35    21    22    1
    36    41    36    1
    37    32    30   ar
    38    36    33   ar
    39    30    38    1
    40    30    31   ar
    41    33    31   ar
    42    33    42    1
    43    46    42   ar
    44    46    45   ar
    45    38    39    1
    46    31    34    1
    47    42    43   ar
    48    47    45    1
    49    45    44   ar
    50    43    44   ar
    51    43    48    1
    52    44    50    1
    53    54    51    1
    54    48    49    1
    55    50    51    1
    56    51    53    1
    57    51    52    1
