@<TRIPOS>MOLECULE
mol_data/noopt/geoms/mol2/4ie4ie4ie-4ie.out
 62 63 0 0 0
SMALL
GASTEIGER

@<TRIPOS>ATOM
      1 C           0.0509    0.0309    0.0002 C.ar    1  LIG1       -0.0498
      2 C           1.4592    0.0309    0.0002 C.ar    1  LIG1       -0.0499
      3 C          -0.6045    1.2792    0.0002 C.ar    1  LIG1       -0.0576
      4 C           2.1849    1.2200   -0.0004 C.ar    1  LIG1       -0.0020
      5 H           1.9850   -0.9213    0.0004 H       1  LIG1        0.0627
      6 C           0.1195    2.4666   -0.0004 C.ar    1  LIG1       -0.0455
      7 C           1.5181    2.4458   -0.0008 C.ar    1  LIG1        0.0324
      8 H          -0.4090    3.4165   -0.0003 H       1  LIG1        0.0630
      9 H          -1.9035    1.3287    0.0016 H       1  LIG1        0.0621
     10 C          -0.5710   -1.1111    0.0005 C.3     1  LIG1       -0.0397
     11 H           0.0257   -1.8420    0.5050 H       1  LIG1        0.0278
     12 H          -0.7416   -1.4245   -1.0083 H       1  LIG1        0.0278
     13 H          -1.5088   -1.0063    0.5049 H       1  LIG1        0.0278
     14 C           2.1896    3.5590   -0.0012 C.1     1  LIG1       -0.0691
     15 C           2.8100    4.5875   -0.0016 C.1     1  LIG1       -0.1139
     16 H           3.3627    5.5037   -0.0019 H       1  LIG1        0.1232
     17 C           4.1518   -0.0588    0.0002 C.ar    1  LIG1       -0.0421
     18 C           5.5600   -0.0451    0.0016 C.ar    1  LIG1       -0.0503
     19 C           3.4843    1.1831   -0.0005 C.ar    1  LIG1       -0.0135
     20 C           6.2742    1.1510    0.0017 C.ar    1  LIG1       -0.0139
     21 H           6.0950   -0.9922    0.0024 H       1  LIG1        0.0627
     22 C           4.1968    2.3775   -0.0004 C.ar    1  LIG1       -0.0497
     23 C           5.5955    2.3702    0.0006 C.ar    1  LIG1       -0.0348
     24 H           3.6591    3.3222   -0.0009 H       1  LIG1        0.0627
     25 C           3.5410   -1.2067   -0.0001 C.3     1  LIG1       -0.0391
     26 H           4.1447   -1.9321    0.5043 H       1  LIG1        0.0278
     27 H           3.3736   -1.5215   -1.0090 H       1  LIG1        0.0278
     28 H           2.6021   -1.1113    0.5042 H       1  LIG1        0.0278
     29 C           6.2561    3.4899    0.0008 C.3     1  LIG1       -0.0005
     30 C           6.8666    4.5244    0.0010 C.3     2  LIG2       -0.0309
     31 H           7.4103    5.4459    0.0012 H       1  LIG1        0.0309
     32 C           8.2991    2.3358    0.0043 C.ar    1  LIG1       -0.0387
     33 C           9.7051    2.2559    0.0071 C.ar    1  LIG1       -0.0500
     34 C           7.5739    1.1267    0.0029 C.ar    1  LIG1       -0.0141
     35 C          10.3621    1.0275    0.0079 C.ar    1  LIG1       -0.0138
     36 H          10.2841    3.1767    0.0084 H       1  LIG1        0.0627
     37 C           8.2293   -0.0999    0.0037 C.ar    1  LIG1       -0.0497
     38 C           9.6269   -0.1585    0.0061 C.ar    1  LIG1       -0.0348
     39 H           7.6478   -1.0183    0.0026 H       1  LIG1        0.0627
     40 C           7.7430    3.5112    0.0034 C.3     1  LIG1       -0.0231
     41 H           6.8006    3.4603    0.5076 H       1  LIG1        0.0361
     42 H           7.5906    3.8330   -1.0057 H       1  LIG1        0.0316
     43 H           8.3801    4.2075    0.5075 H       1  LIG1        0.0316
     44 C          10.2341   -1.3080    0.0069 C.3     1  LIG1       -0.0005
     45 C          10.7952   -2.3701    0.0077 C.3     3  LIG3       -0.0309
     46 H          11.2950   -3.3162    0.0084 H       2  LIG2        0.0309
     47 C          12.3290   -0.2513    0.0125 C.ar    1  LIG1       -0.0393
     48 C          13.7373   -0.2376    0.0167 C.ar    1  LIG1       -0.0568
     49 C          11.6616    0.9906    0.0104 C.ar    1  LIG1       -0.0133
     50 C          14.4514    0.9585    0.0181 C.ar    1  LIG1       -0.0460
     51 H          14.2723   -1.1847    0.0186 H       1  LIG1        0.0621
     52 C          12.3740    2.1850    0.0118 C.ar    1  LIG1       -0.0383
     53 C          13.7727    2.1777    0.0156 C.ar    1  LIG1        0.0253
     54 H          11.8363    3.1297    0.0102 H       1  LIG1        0.0636
     55 H          15.7512    0.9342    0.0219 H       1  LIG1        0.0630
     56 C          11.7182   -1.3992    0.0110 C.3     1  LIG1       -0.0231
     57 H          12.3217   -2.1250    0.5151 H       1  LIG1        0.0316
     58 H          11.5513   -1.7132   -0.9982 H       1  LIG1        0.0316
     59 H          10.7792   -1.3042    0.5150 H       1  LIG1        0.0361
     60 C          14.4334    3.2973    0.0171 C.1     1  LIG1       -0.0696
     61 C          15.0438    4.3319    0.0185 C.1     1  LIG1       -0.1139
     62 H          15.5876    5.2534    0.0197 H       1  LIG1        0.1232
@<TRIPOS>BOND
     1    27    25    1
     2    12    10    1
     3    42    40    1
     4    58    56    1
     5    16    15    1
     6    15    14    3
     7    14     7    1
     8    24    22    1
     9     7     4   ar
    10     7     6   ar
    11    19    22   ar
    12    19     4    1
    13    19    17   ar
    14    22    23   ar
    15     4     2   ar
    16     6     8    1
    17     6     3   ar
    18    25    17    1
    19    25    28    1
    20    25    26    1
    21     1     3   ar
    22     1     2   ar
    23     1    10    1
    24     3     9    1
    25     2     5    1
    26    17    18   ar
    27    10    13    1
    28    10    11    1
    29    23    29    1
    30    23    20   ar
    31    29    41    1
    32    30    31    1
    33    18    20   ar
    34    18    21    1
    35    20    34    1
    36    39    37    1
    37    34    37   ar
    38    34    32   ar
    39    40    32    1
    40    40    43    1
    41    37    38   ar
    42    32    33   ar
    43    38    44    1
    44    38    35   ar
    45    44    59    1
    46    33    35   ar
    47    33    36    1
    48    45    46    1
    49    35    49    1
    50    54    52    1
    51    49    52   ar
    52    49    47   ar
    53    56    47    1
    54    56    57    1
    55    52    53   ar
    56    47    48   ar
    57    53    60    1
    58    53    50   ar
    59    48    50   ar
    60    48    51    1
    61    60    61    3
    62    50    55    1
    63    61    62    1
