@<TRIPOS>MOLECULE
mol_data/noopt/geoms/mol2/4ie4ie-.out
 32 32 0 0 0
SMALL
GASTEIGER

@<TRIPOS>ATOM
      1 C           0.0509    0.0309    0.0002 C.ar    1  LIG1       -0.0499
      2 C           1.4592    0.0309    0.0002 C.ar    1  LIG1       -0.0508
      3 C          -0.6045    1.2792    0.0002 C.ar    1  LIG1       -0.0585
      4 C           2.1849    1.2200   -0.0004 C.ar    1  LIG1       -0.0139
      5 H           1.9850   -0.9213    0.0004 H       1  LIG1        0.0626
      6 C           0.1195    2.4666   -0.0004 C.ar    1  LIG1       -0.0574
      7 C           1.5181    2.4458   -0.0008 C.ar    1  LIG1       -0.0354
      8 H          -0.4090    3.4165   -0.0003 H       1  LIG1        0.0621
      9 H          -1.9035    1.3287    0.0016 H       1  LIG1        0.0620
     10 C          -0.5710   -1.1111    0.0005 C.3     1  LIG1       -0.0397
     11 H           0.0257   -1.8420    0.5050 H       1  LIG1        0.0278
     12 H          -0.7416   -1.4245   -1.0083 H       1  LIG1        0.0278
     13 H          -1.5088   -1.0063    0.5049 H       1  LIG1        0.0278
     14 C           2.1896    3.5590   -0.0012 C.3     1  LIG1       -0.0005
     15 C           2.8100    4.5875   -0.0016 C.3     2  LIG2       -0.0309
     16 H           3.3627    5.5037   -0.0019 H       1  LIG1        0.0309
     17 C           4.2212    2.3851    0.0002 C.ar    1  LIG1       -0.0393
     18 C           5.6264    2.2916    0.0016 C.ar    1  LIG1       -0.0568
     19 C           3.4843    1.1831   -0.0005 C.ar    1  LIG1       -0.0133
     20 C           6.2715    1.0569    0.0017 C.ar    1  LIG1       -0.0460
     21 H           6.2143    3.2067    0.0024 H       1  LIG1        0.0621
     22 C           4.1278   -0.0498   -0.0004 C.ar    1  LIG1       -0.0383
     23 C           5.5247   -0.1219    0.0006 C.ar    1  LIG1        0.0253
     24 H           3.5374   -0.9625   -0.0009 H       1  LIG1        0.0636
     25 H           7.5706    1.0074    0.0029 H       1  LIG1        0.0630
     26 C           3.6765    3.5659   -0.0001 C.3     1  LIG1       -0.0231
     27 H           2.7338    3.5239    0.5043 H       1  LIG1        0.0361
     28 H           3.5272    3.8895   -1.0090 H       1  LIG1        0.0316
     29 H           4.3204    4.2558    0.5042 H       1  LIG1        0.0316
     30 C           6.1208   -1.2772    0.0008 C.1     1  LIG1       -0.0696
     31 C           6.6715   -2.3447    0.0010 C.1     1  LIG1       -0.1139
     32 H           7.1621   -3.2956    0.0012 H       1  LIG1        0.1232
@<TRIPOS>BOND
     1    28    26    1
     2    12    10    1
     3    16    15    1
     4    14     7    1
     5    14    27    1
     6    24    22    1
     7     7     4   ar
     8     7     6   ar
     9    19    22   ar
    10    19     4    1
    11    19    17   ar
    12    22    23   ar
    13     4     2   ar
    14     6     8    1
    15     6     3   ar
    16    26    17    1
    17    26    29    1
    18    17    18   ar
    19     1     2   ar
    20     1     3   ar
    21     1    10    1
    22     2     5    1
    23     3     9    1
    24    10    13    1
    25    10    11    1
    26    23    30    1
    27    23    20   ar
    28    30    31    3
    29    31    32    1
    30    18    20   ar
    31    18    21    1
    32    20    25    1
