@<TRIPOS>MOLECULE
mol_data/noopt/geoms/mol2/4ie4ie4ie.out
 47 49 0 0 0
SMALL
GASTEIGER

@<TRIPOS>ATOM
      1 C           0.0509    0.0309    0.0002 C.ar    1  LIG1       -0.0498
      2 C           1.4592    0.0309    0.0002 C.ar    1  LIG1       -0.0499
      3 C          -0.6045    1.2792    0.0002 C.ar    1  LIG1       -0.0576
      4 C           2.1849    1.2200   -0.0004 C.ar    1  LIG1       -0.0020
      5 H           1.9850   -0.9213    0.0004 H       1  LIG1        0.0627
      6 C           0.1195    2.4666   -0.0004 C.ar    1  LIG1       -0.0455
      7 C           1.5181    2.4458   -0.0008 C.ar    1  LIG1        0.0324
      8 H          -0.4090    3.4165   -0.0003 H       1  LIG1        0.0630
      9 H          -1.9035    1.3287    0.0016 H       1  LIG1        0.0621
     10 C          -0.5710   -1.1111    0.0005 C.3     1  LIG1       -0.0397
     11 H           0.0257   -1.8420    0.5050 H       1  LIG1        0.0278
     12 H          -0.7416   -1.4245   -1.0083 H       1  LIG1        0.0278
     13 H          -1.5088   -1.0063    0.5049 H       1  LIG1        0.0278
     14 C           2.1896    3.5590   -0.0012 C.1     1  LIG1       -0.0691
     15 C           2.8100    4.5875   -0.0016 C.1     1  LIG1       -0.1139
     16 H           3.3627    5.5037   -0.0019 H       1  LIG1        0.1232
     17 C           4.1518   -0.0588    0.0002 C.ar    1  LIG1       -0.0421
     18 C           5.5600   -0.0451    0.0016 C.ar    1  LIG1       -0.0494
     19 C           3.4843    1.1831   -0.0005 C.ar    1  LIG1       -0.0126
     20 C           6.2742    1.1510    0.0017 C.ar    1  LIG1       -0.0019
     21 H           6.0950   -0.9922    0.0024 H       1  LIG1        0.0627
     22 C           4.1968    2.3775   -0.0004 C.ar    1  LIG1       -0.0377
     23 C           5.5955    2.3702    0.0006 C.ar    1  LIG1        0.0330
     24 H           3.6591    3.3222   -0.0009 H       1  LIG1        0.0636
     25 C           3.5410   -1.2067   -0.0001 C.3     1  LIG1       -0.0391
     26 H           4.1447   -1.9321    0.5043 H       1  LIG1        0.0278
     27 H           3.3736   -1.5215   -1.0090 H       1  LIG1        0.0278
     28 H           2.6021   -1.1113    0.5042 H       1  LIG1        0.0278
     29 C           6.2561    3.4899    0.0008 C.1     1  LIG1       -0.0690
     30 C           6.8666    4.5244    0.0010 C.1     1  LIG1       -0.1139
     31 H           7.4103    5.4459    0.0012 H       1  LIG1        0.1232
     32 C           8.2534   -0.1087    0.0043 C.ar    1  LIG1       -0.0426
     33 C           9.6614   -0.0814    0.0071 C.ar    1  LIG1       -0.0571
     34 C           7.5739    1.1267    0.0029 C.ar    1  LIG1       -0.0126
     35 C          10.3639    1.1216    0.0079 C.ar    1  LIG1       -0.0461
     36 H          10.2056   -1.0232    0.0084 H       1  LIG1        0.0621
     37 C           8.2747    2.3279    0.0036 C.ar    1  LIG1       -0.0383
     38 C           9.6734    2.3342    0.0060 C.ar    1  LIG1        0.0253
     39 H           7.7279    3.2674    0.0026 H       1  LIG1        0.0636
     40 H          11.6639    1.1099    0.0104 H       1  LIG1        0.0630
     41 C           7.6537   -1.2625    0.0034 C.3     1  LIG1       -0.0391
     42 H           8.2643   -1.9821    0.5076 H       1  LIG1        0.0278
     43 H           7.4896   -1.5784   -1.0056 H       1  LIG1        0.0278
     44 H           6.7139   -1.1763    0.5076 H       1  LIG1        0.0278
     45 C          10.3232    3.4602    0.0069 C.1     1  LIG1       -0.0696
     46 C          10.9236    4.5006    0.0077 C.1     1  LIG1       -0.1139
     47 H          11.4584    5.4274    0.0084 H       1  LIG1        0.1232
@<TRIPOS>BOND
     1    27    25    1
     2    12    10    1
     3    43    41    1
     4    16    15    1
     5    15    14    3
     6    14     7    1
     7    24    22    1
     8     7     4   ar
     9     7     6   ar
    10    19    22   ar
    11    19     4    1
    12    19    17   ar
    13    22    23   ar
    14     4     2   ar
    15     6     8    1
    16     6     3   ar
    17    25    17    1
    18    25    28    1
    19    25    26    1
    20     1     3   ar
    21     1     2   ar
    22     1    10    1
    23     3     9    1
    24     2     5    1
    25    17    18   ar
    26    10    13    1
    27    10    11    1
    28    23    29    1
    29    23    20   ar
    30    29    30    3
    31    30    31    1
    32    18    20   ar
    33    18    21    1
    34    20    34    1
    35    39    37    1
    36    34    37   ar
    37    34    32   ar
    38    41    32    1
    39    41    44    1
    40    41    42    1
    41    37    38   ar
    42    32    33   ar
    43    38    45    1
    44    38    35   ar
    45    45    46    3
    46    33    35   ar
    47    33    36    1
    48    46    47    1
    49    35    40    1
