@<TRIPOS>MOLECULE
mol_data/noopt/geoms/mol2/4ie4ie-4ie4ie.out
 62 63 0 0 0
SMALL
GASTEIGER

@<TRIPOS>ATOM
      1 C           0.0509    0.0309    0.0002 C.ar    1  LIG1       -0.0499
      2 C           1.4592    0.0309    0.0002 C.ar    1  LIG1       -0.0508
      3 C          -0.6045    1.2792    0.0002 C.ar    1  LIG1       -0.0585
      4 C           2.1849    1.2200   -0.0004 C.ar    1  LIG1       -0.0139
      5 H           1.9850   -0.9213    0.0004 H       1  LIG1        0.0626
      6 C           0.1195    2.4666   -0.0004 C.ar    1  LIG1       -0.0574
      7 C           1.5181    2.4458   -0.0008 C.ar    1  LIG1       -0.0354
      8 H          -0.4090    3.4165   -0.0003 H       1  LIG1        0.0621
      9 H          -1.9035    1.3287    0.0016 H       1  LIG1        0.0620
     10 C          -0.5710   -1.1111    0.0005 C.3     1  LIG1       -0.0397
     11 H           0.0257   -1.8420    0.5050 H       1  LIG1        0.0278
     12 H          -0.7416   -1.4245   -1.0083 H       1  LIG1        0.0278
     13 H          -1.5088   -1.0063    0.5049 H       1  LIG1        0.0278
     14 C           2.1896    3.5590   -0.0012 C.3     1  LIG1       -0.0005
     15 C           2.8100    4.5875   -0.0016 C.3     2  LIG2       -0.0309
     16 H           3.3627    5.5037   -0.0019 H       1  LIG1        0.0309
     17 C           4.2212    2.3851    0.0002 C.ar    1  LIG1       -0.0387
     18 C           5.6264    2.2916    0.0016 C.ar    1  LIG1       -0.0500
     19 C           3.4843    1.1831   -0.0005 C.ar    1  LIG1       -0.0141
     20 C           6.2715    1.0569    0.0017 C.ar    1  LIG1       -0.0138
     21 H           6.2143    3.2067    0.0024 H       1  LIG1        0.0627
     22 C           4.1278   -0.0498   -0.0004 C.ar    1  LIG1       -0.0497
     23 C           5.5247   -0.1219    0.0006 C.ar    1  LIG1       -0.0348
     24 H           3.5374   -0.9625   -0.0009 H       1  LIG1        0.0627
     25 C           3.6765    3.5659   -0.0001 C.3     1  LIG1       -0.0231
     26 H           2.7338    3.5239    0.5043 H       1  LIG1        0.0361
     27 H           3.5272    3.8895   -1.0090 H       1  LIG1        0.0316
     28 H           4.3204    4.2558    0.5042 H       1  LIG1        0.0316
     29 C           6.1208   -1.2772    0.0008 C.3     1  LIG1       -0.0005
     30 C           6.6715   -2.3447    0.0010 C.3     3  LIG3       -0.0309
     31 H           7.1621   -3.2956    0.0012 H       2  LIG2        0.0309
     32 C           8.2259   -0.2409    0.0043 C.ar    1  LIG1       -0.0387
     33 C           9.6342   -0.2409    0.0071 C.ar    1  LIG1       -0.0491
     34 C           7.5705    1.0074    0.0029 C.ar    1  LIG1       -0.0132
     35 C          10.3599    0.9482    0.0079 C.ar    1  LIG1       -0.0019
     36 H          10.1600   -1.1931    0.0084 H       1  LIG1        0.0627
     37 C           8.2945    2.1948    0.0036 C.ar    1  LIG1       -0.0378
     38 C           9.6931    2.1740    0.0060 C.ar    1  LIG1        0.0330
     39 H           7.7660    3.1447    0.0026 H       1  LIG1        0.0636
     40 C           7.6040   -1.3829    0.0034 C.3     1  LIG1       -0.0231
     41 H           8.2005   -2.1142    0.5076 H       1  LIG1        0.0316
     42 H           7.4338   -1.6956   -1.0056 H       1  LIG1        0.0316
     43 H           6.6660   -1.2785    0.5076 H       1  LIG1        0.0361
     44 C          10.3646    3.2871    0.0069 C.1     1  LIG1       -0.0690
     45 C          10.9850    4.3157    0.0077 C.1     1  LIG1       -0.1139
     46 H          11.5377    5.2319    0.0084 H       1  LIG1        0.1232
     47 C          12.3268   -0.3306    0.0125 C.ar    1  LIG1       -0.0426
     48 C          13.7350   -0.3169    0.0167 C.ar    1  LIG1       -0.0571
     49 C          11.6593    0.9113    0.0104 C.ar    1  LIG1       -0.0126
     50 C          14.4491    0.8791    0.0181 C.ar    1  LIG1       -0.0461
     51 H          14.2700   -1.2640    0.0186 H       1  LIG1        0.0621
     52 C          12.3718    2.1056    0.0118 C.ar    1  LIG1       -0.0383
     53 C          13.7705    2.0984    0.0156 C.ar    1  LIG1        0.0253
     54 H          11.8341    3.0504    0.0102 H       1  LIG1        0.0636
     55 H          15.7489    0.8548    0.0219 H       1  LIG1        0.0630
     56 C          11.7160   -1.4785    0.0110 C.3     1  LIG1       -0.0391
     57 H          12.3194   -2.2043    0.5151 H       1  LIG1        0.0278
     58 H          11.5490   -1.7925   -0.9982 H       1  LIG1        0.0278
     59 H          10.7769   -1.3835    0.5150 H       1  LIG1        0.0278
     60 C          14.4311    3.2180    0.0171 C.1     1  LIG1       -0.0696
     61 C          15.0416    4.2526    0.0185 C.1     1  LIG1       -0.1139
     62 H          15.5853    5.1741    0.0197 H       1  LIG1        0.1232
@<TRIPOS>BOND
     1    27    25    1
     2    12    10    1
     3    42    40    1
     4    58    56    1
     5    16    15    1
     6    14     7    1
     7    14    26    1
     8    24    22    1
     9     7     4   ar
    10     7     6   ar
    11    19    22   ar
    12    19     4    1
    13    19    17   ar
    14    22    23   ar
    15     4     2   ar
    16     6     8    1
    17     6     3   ar
    18    25    17    1
    19    25    28    1
    20    17    18   ar
    21     1     3   ar
    22     1     2   ar
    23     1    10    1
    24     3     9    1
    25     2     5    1
    26    10    13    1
    27    10    11    1
    28    23    29    1
    29    23    20   ar
    30    29    43    1
    31    30    31    1
    32    18    20   ar
    33    18    21    1
    34    20    34    1
    35    39    37    1
    36    34    37   ar
    37    34    32   ar
    38    40    32    1
    39    40    41    1
    40    37    38   ar
    41    32    33   ar
    42    38    44    1
    43    38    35   ar
    44    44    45    3
    45    33    35   ar
    46    33    36    1
    47    45    46    1
    48    35    49    1
    49    54    52    1
    50    49    52   ar
    51    49    47   ar
    52    56    47    1
    53    56    59    1
    54    56    57    1
    55    52    53   ar
    56    47    48   ar
    57    53    60    1
    58    53    50   ar
    59    48    50   ar
    60    48    51    1
    61    60    61    3
    62    50    55    1
    63    61    62    1
