@<TRIPOS>MOLECULE
mol_data/noopt/geoms/mol2/4ie6fd-6hd-13fh-.out
 51 53 0 0 0
SMALL
GASTEIGER

@<TRIPOS>ATOM
      1 C           0.0509    0.0309    0.0002 C.ar    1  LIG1       -0.0499
      2 C           1.4592    0.0309    0.0002 C.ar    1  LIG1       -0.0507
      3 C          -0.6045    1.2792    0.0002 C.ar    1  LIG1       -0.0585
      4 C           2.1849    1.2200   -0.0004 C.ar    1  LIG1       -0.0087
      5 H           1.9850   -0.9213    0.0004 H       1  LIG1        0.0626
      6 C           0.1195    2.4666   -0.0004 C.ar    1  LIG1       -0.0571
      7 C           1.5181    2.4458   -0.0008 C.ar    1  LIG1       -0.0306
      8 H          -0.4090    3.4165   -0.0003 H       1  LIG1        0.0621
      9 H          -1.9035    1.3287    0.0016 H       1  LIG1        0.0620
     10 C          -0.5710   -1.1111    0.0005 C.3     1  LIG1       -0.0397
     11 H           0.0257   -1.8420    0.5050 H       1  LIG1        0.0278
     12 H          -0.7416   -1.4245   -1.0083 H       1  LIG1        0.0278
     13 H          -1.5088   -1.0063    0.5049 H       1  LIG1        0.0278
     14 C           2.1896    3.5590   -0.0012 C.3     1  LIG1        0.0304
     15 C           2.8100    4.5875   -0.0016 C.3     2  LIG2       -0.0309
     16 H           3.3627    5.5037   -0.0019 H       1  LIG1        0.0309
     17 C           4.2297    2.3762   -0.0216 C.ar    1  LIG1        0.2208
     18 C           3.4844    1.1831   -0.0005 C.ar    1  LIG1        0.0450
     19 C           4.1715   -0.0320    0.0205 C.ar    1  LIG1       -0.0294
     20 C           5.5674   -0.0147    0.0195 C.ar    1  LIG1        0.0786
     21 C           6.2235    1.2297   -0.0026 C.ar    1  LIG1        0.0954
     22 N           5.5764    2.4113   -0.0228 N.ar    1  LIG1       -0.2111
     23 H           3.6233   -0.9846    0.0362 H       1  LIG1        0.0639
     24 O           3.6351    3.5321   -0.0414 O.3     1  LIG1       -0.4920
     25 H           2.6838    3.4031   -0.0463 H       1  LIG1        0.2937
     26 N           6.8580   -2.0929    0.0549 N.1     1  LIG1       -0.1908
     27 C           6.2531   -1.1189    0.0383 C.1     1  LIG1        0.1013
     28 C           8.1685    2.5468   -0.0263 C.ar    1  LIG1        0.1262
     29 C           7.5217    1.2976   -0.0044 C.ar    1  LIG1        0.0425
     30 C           8.3045    0.1418    0.0157 C.ar    1  LIG1       -0.0297
     31 C           9.6944    0.2715    0.0130 C.ar    1  LIG1        0.0800
     32 C          10.2482    1.5647   -0.0099 C.ar    1  LIG1        0.1102
     33 N           9.5080    2.6903   -0.0293 N.ar    1  LIG1       -0.2289
     34 H           7.8348   -0.8518    0.0321 H       1  LIG1        0.0639
     35 N           7.4827    3.6511   -0.0454 N.pl3   1  LIG1       -0.3426
     36 H           8.0042    4.3591   -0.5216 H       1  LIG1        0.1437
     37 H           6.6170    3.4977   -0.5217 H       1  LIG1        0.1437
     38 N          11.1483   -1.6960    0.0467 N.1     1  LIG1       -0.1908
     39 C          10.4670   -0.7739    0.0309 C.1     1  LIG1        0.1014
     40 C          11.5367    1.7369   -0.0133 C.ar    1  LIG1        0.1101
     41 C          12.5480    0.8285    0.0007 C.ar    1  LIG1        0.1644
     42 C          13.7795    1.5593   -0.0104 C.ar    1  LIG1        0.0849
     43 C          13.4666    2.8820   -0.0324 C.ar    1  LIG1        0.0267
     44 N          12.0946    2.9953   -0.0338 N.ar    1  LIG1       -0.3549
     45 H          11.5873    3.8499   -0.0480 H       1  LIG1        0.1655
     46 H          14.2351    3.9304   -0.0493 H       1  LIG1        0.0827
     47 O          12.4172   -0.4648    0.0219 O.3     1  LIG1       -0.5031
     48 H          13.2854   -0.8745    0.0271 H       1  LIG1        0.2923
     49 N          14.9774    1.0545   -0.0016 N.pl3   1  LIG1       -0.3540
     50 H          14.9705    0.1714   -0.4707 H       1  LIG1        0.1425
     51 H          15.6046    1.6762   -0.4708 H       1  LIG1        0.1425
@<TRIPOS>BOND
     1    12    10    1
     2    37    35    1
     3    36    35    1
     4    51    49    1
     5    50    49    1
     6    46    43    1
     7    45    44    1
     8    25    24    1
     9    35    28    1
    10    24    17    1
    11    44    43   ar
    12    44    40   ar
    13    43    42   ar
    14    33    28   ar
    15    33    32   ar
    16    28    29   ar
    17    22    17   ar
    18    22    21   ar
    19    17    18   ar
    20    40    32    1
    21    40    41   ar
    22    42    49    1
    23    42    41   ar
    24    32    31   ar
    25    29    21    1
    26    29    30   ar
    27    21    20   ar
    28    16    15    1
    29    14     7    1
    30     7     6   ar
    31     7     4   ar
    32    18     4    1
    33    18    19   ar
    34     6     8    1
    35     6     3   ar
    36     4     2   ar
    37     1     2   ar
    38     1     3   ar
    39     1    10    1
    40     2     5    1
    41     3     9    1
    42    10    13    1
    43    10    11    1
    44    41    47    1
    45    31    30   ar
    46    31    39    1
    47    30    34    1
    48    20    19   ar
    49    20    27    1
    50    19    23    1
    51    47    48    1
    52    39    38    3
    53    27    26    3
