@<TRIPOS>MOLECULE
mol_data/noopt/geoms/mol2/4ie6df(30)4hl(270)6dh(120).out
 56 61 0 0 0
SMALL
GASTEIGER

@<TRIPOS>ATOM
      1 C           0.0509    0.0309    0.0002 C.ar    1  LIG1       -0.0498
      2 C           1.4592    0.0309    0.0002 C.ar    1  LIG1       -0.0505
      3 C          -0.6045    1.2792    0.0002 C.ar    1  LIG1       -0.0582
      4 C           2.1849    1.2200   -0.0004 C.ar    1  LIG1       -0.0079
      5 H           1.9850   -0.9213    0.0004 H       1  LIG1        0.0626
      6 C           0.1195    2.4666   -0.0004 C.ar    1  LIG1       -0.0534
      7 C           1.5181    2.4458   -0.0008 C.ar    1  LIG1       -0.0103
      8 H          -0.4090    3.4165   -0.0003 H       1  LIG1        0.0624
      9 H          -1.9035    1.3287    0.0016 H       1  LIG1        0.0620
     10 C          -0.5710   -1.1111    0.0005 C.3     1  LIG1       -0.0397
     11 H           0.0257   -1.8420    0.5050 H       1  LIG1        0.0278
     12 H          -0.7416   -1.4245   -1.0083 H       1  LIG1        0.0278
     13 H          -1.5088   -1.0063    0.5049 H       1  LIG1        0.0278
     14 C           2.1896    3.5590   -0.0012 C.ar    1  LIG1        0.0092
     15 C           2.8100    4.5875   -0.0016 C.3     1  LIG1        0.0943
     16 H           3.3627    5.5037   -0.0019 H       1  LIG1        0.0591
     17 C           4.2250    2.2141   -0.6070 C.ar    1  LIG1        0.0953
     18 C           3.4844    1.1831   -0.0005 C.ar    1  LIG1        0.0135
     19 C           4.1761    0.1278    0.5968 C.ar    1  LIG1       -0.0082
     20 C           5.5717    0.1375    0.5684 C.ar    1  LIG1        0.1434
     21 C           6.2230    1.2132   -0.0626 C.ar    1  LIG1        0.1149
     22 N           5.5714    2.2395   -0.6436 N.ar    1  LIG1       -0.2410
     23 H           3.6316   -0.6961    1.0795 H       1  LIG1        0.0661
     24 N           3.0979    4.1033   -1.6778 N.pl3   1  LIG1       -0.2379
     25 C           3.6261    3.2179   -1.1759 C.ar    1  LIG1        0.0801
     26 O           6.2617   -0.8219    1.1102 O.3     1  LIG1       -0.5046
     27 H           7.1664   -0.5300    1.2437 H       1  LIG1        0.2922
     28 C           8.1730    1.2936   -1.3646 C.ar    1  LIG1        0.0348
     29 C           9.5802    1.3506   -1.3676 C.ar    1  LIG1       -0.0291
     30 C           7.5208    1.2672   -0.1149 C.ar    1  LIG1        0.0280
     31 C          10.3078    1.3807   -0.1800 C.ar    1  LIG1        0.0283
     32 H          10.1035    1.3716   -2.3209 H       1  LIG1        0.0643
     33 C           8.2467    1.2973    1.0710 C.ar    1  LIG1       -0.0083
     34 C           9.6441    1.3543    1.0472 C.ar    1  LIG1        0.1286
     35 H           7.7206    1.2759    2.0220 H       1  LIG1        0.0661
     36 N           7.5494    1.2680   -2.5050 N.pl3   1  LIG1       -0.3574
     37 H           7.7692    2.0942   -3.0237 H       1  LIG1        0.1423
     38 H           7.8362    0.4626   -3.0237 H       1  LIG1        0.1423
     39 O          10.3174    1.3820    2.1590 O.3     1  LIG1       -0.4945
     40 C          10.6200    0.0453    2.5671 C.3     1  LIG1        0.0788
     41 H          11.1743    0.0686    3.4821 H       1  LIG1        0.0660
     42 H           9.7097   -0.4972    2.7153 H       1  LIG1        0.0660
     43 H          11.2025   -0.4357    1.8094 H       1  LIG1        0.0660
     44 C          12.3089    0.8542   -1.2920 C.ar    1  LIG1        0.1479
     45 C          11.6061    1.4334   -0.2196 C.ar    1  LIG1        0.0233
     46 C          12.3338    2.0617    0.7927 C.ar    1  LIG1       -0.0290
     47 C          13.7264    2.0898    0.7008 C.ar    1  LIG1        0.0436
     48 C          14.3385    1.4823   -0.4108 C.ar    1  LIG1        0.0497
     49 N          13.6519    0.8721   -1.3965 N.ar    1  LIG1       -0.2422
     50 H          11.8194    2.5245    1.6468 H       1  LIG1        0.0643
     51 H          15.6319    1.4826   -0.5411 H       1  LIG1        0.0849
     52 N          11.1172   -0.2674   -3.1107 N.1     1  LIG1       -0.1893
     53 C          11.6757    0.2583   -2.2583 C.1     1  LIG1        0.1197
     54 N          14.4490    2.6622    1.6176 N.pl3   1  LIG1       -0.3568
     55 H          15.4018    2.3753    1.5183 H       1  LIG1        0.1424
     56 H          14.3878    3.6553    1.5183 H       1  LIG1        0.1424
@<TRIPOS>BOND
     1    52    53    3
     2    38    36    1
     3    37    36    1
     4    36    28    1
     5    32    29    1
     6    53    44    1
     7    24    25    1
     8    24    15    1
     9    49    44   ar
    10    49    48   ar
    11    29    28   ar
    12    29    31   ar
    13    28    30   ar
    14    44    45   ar
    15    25    17   ar
    16    25    14   ar
    17    12    10    1
    18    22    17   ar
    19    22    21   ar
    20    17    18   ar
    21    51    48    1
    22    48    47   ar
    23    45    31    1
    24    45    46   ar
    25    31    34   ar
    26    30    21    1
    27    30    33   ar
    28    21    20   ar
    29    16    15    1
    30    15    14    1
    31    14     7   ar
    32     7     6   ar
    33     7     4   ar
    34    18     4   ar
    35    18    19   ar
    36     6     8    1
    37     6     3   ar
    38     4     2   ar
    39     1     2   ar
    40     1     3   ar
    41     1    10    1
    42     2     5    1
    43     3     9    1
    44    10    13    1
    45    10    11    1
    46    20    19   ar
    47    20    26    1
    48    19    23    1
    49    47    46   ar
    50    47    54    1
    51    46    50    1
    52    34    33   ar
    53    34    39    1
    54    33    35    1
    55    26    27    1
    56    56    54    1
    57    55    54    1
    58    43    40    1
    59    39    40    1
    60    40    42    1
    61    40    41    1
