@<TRIPOS>MOLECULE
mol_data/noopt/geoms/mol2/4if12fh13fa12fl.out
 47 50 0 0 0
SMALL
GASTEIGER

@<TRIPOS>ATOM
      1 C           0.0509    0.0309    0.0002 C.ar    1  LIG1       -0.0495
      2 C           1.4592    0.0309    0.0002 C.ar    1  LIG1       -0.0445
      3 C          -0.6045    1.2792    0.0002 C.ar    1  LIG1       -0.0554
      4 C           2.1849    1.2200   -0.0004 C.ar    1  LIG1        0.0626
      5 H           1.9850   -0.9213    0.0004 H       1  LIG1        0.0628
      6 C           0.1195    2.4666   -0.0004 C.ar    1  LIG1       -0.0192
      7 C           1.5181    2.4458   -0.0008 C.ar    1  LIG1        0.1276
      8 H          -0.4090    3.4165   -0.0003 H       1  LIG1        0.0654
      9 H          -1.9035    1.3287    0.0016 H       1  LIG1        0.0621
     10 C          -0.5710   -1.1111    0.0005 C.3     1  LIG1       -0.0397
     11 H           0.0257   -1.8420    0.5050 H       1  LIG1        0.0278
     12 H          -0.7416   -1.4245   -1.0083 H       1  LIG1        0.0278
     13 H          -1.5088   -1.0063    0.5049 H       1  LIG1        0.0278
     14 O           2.1896    3.5590   -0.0012 O.3     1  LIG1       -0.5061
     15 H           1.5802    4.3008   -0.0013 H       1  LIG1        0.2922
     16 C           3.4844    1.1831   -0.0005 C.ar    1  LIG1        0.1824
     17 C           4.4399    0.1881   -0.0006 C.ar    1  LIG1        0.1846
     18 C           5.7279    0.8499   -0.0007 C.ar    1  LIG1        0.1153
     19 C           5.4738    2.2061   -0.0008 C.ar    1  LIG1        0.1796
     20 O           4.0977    2.4367   -0.0007 O.2     1  LIG1       -0.4474
     21 O           4.2495   -1.0979   -0.0005 O.3     1  LIG1       -0.5020
     22 H           5.0978   -1.5474   -0.0004 H       1  LIG1        0.2924
     23 N           6.8846    0.2566   -0.0008 N.pl3   1  LIG1       -0.3521
     24 H           6.8084   -0.6220   -0.4722 H       1  LIG1        0.1425
     25 H           7.5538    0.8309   -0.4722 H       1  LIG1        0.1425
     26 C           6.1999    3.2844   -0.0008 C.ar    1  LIG1        0.1265
     27 C           7.5504    3.4384    0.0154 C.ar    1  LIG1        0.1458
     28 C           7.8207    4.8446    0.0076 C.ar    1  LIG1        0.0091
     29 C           6.6235    5.4882   -0.0147 C.ar    1  LIG1        0.0900
     30 N           5.6285    4.5367   -0.0195 N.ar    1  LIG1       -0.3463
     31 H           4.6524    4.7243   -0.0347 H       1  LIG1        0.1662
     32 O           8.4313    2.4825    0.0358 O.3     1  LIG1       -0.5045
     33 H           9.3139    2.8601    0.0408 H       1  LIG1        0.2922
     34 H           8.9932    5.4060    0.0193 H       1  LIG1        0.0677
     35 C           6.3489    6.7587   -0.0293 C.ar    1  LIG1        0.1960
     36 C           7.0868    7.9242   -0.0403 C.ar    1  LIG1        0.2068
     37 C           6.1365    9.0168   -0.0545 C.ar    1  LIG1        0.2002
     38 C           4.8803    8.4461   -0.0513 C.ar    1  LIG1        0.1380
     39 O           4.9851    7.0549   -0.0359 O.2     1  LIG1       -0.4539
     40 H           3.6598    8.8935   -0.0591 H       1  LIG1        0.1069
     41 O           8.3811    8.0466   -0.0384 O.3     1  LIG1       -0.5008
     42 H           8.6149    8.9777   -0.0380 H       1  LIG1        0.2924
     43 O           6.4364   10.2817   -0.0676 O.3     1  LIG1       -0.4888
     44 C           7.8581   10.4351   -0.0725 C.3     1  LIG1        0.0791
     45 H           8.1045   11.4763   -0.0834 H       1  LIG1        0.0660
     46 H           8.2690    9.9806    0.8048 H       1  LIG1        0.0660
     47 H           8.2648    9.9632   -0.9424 H       1  LIG1        0.0660
@<TRIPOS>BOND
     1    12    10    1
     2    47    44    1
     3    25    23    1
     4    24    23    1
     5    45    44    1
     6    44    43    1
     7    44    46    1
     8    43    37    1
     9    40    38    1
    10    37    38   ar
    11    37    36   ar
    12    38    39   ar
    13    36    41    1
    14    36    35   ar
    15    41    42    1
    16    39    35   ar
    17    31    30    1
    18    35    29    1
    19    30    29   ar
    20    30    26   ar
    21    29    28   ar
    22    15    14    1
    23    14     7    1
    24    26    19    1
    25    26    27   ar
    26     7     4   ar
    27     7     6   ar
    28    23    18    1
    29    19    20   ar
    30    19    18   ar
    31    20    16   ar
    32    18    17   ar
    33    17    16   ar
    34    17    21    1
    35    16     4    1
    36    21    22    1
    37     4     2   ar
    38     6     8    1
    39     6     3   ar
    40     2     1   ar
    41     2     5    1
    42     3     1   ar
    43     3     9    1
    44     1    10    1
    45    10    13    1
    46    10    11    1
    47    28    27   ar
    48    28    34    1
    49    27    32    1
    50    32    33    1
