@<TRIPOS>MOLECULE
mol_data/noopt/geoms/mol2/4if12hf6ai-13fe-4hi12al6ai13lf-.out
 100 103 0 0 0
SMALL
GASTEIGER

@<TRIPOS>ATOM
      1 C           0.0509    0.0309    0.0002 C.ar    1  LIG1       -0.0495
      2 C           1.4592    0.0309    0.0002 C.ar    1  LIG1       -0.0446
      3 C          -0.6045    1.2792    0.0002 C.ar    1  LIG1       -0.0554
      4 C           2.1849    1.2200   -0.0004 C.ar    1  LIG1        0.0608
      5 H           1.9850   -0.9213    0.0004 H       1  LIG1        0.0628
      6 C           0.1195    2.4666   -0.0004 C.ar    1  LIG1       -0.0192
      7 C           1.5181    2.4458   -0.0008 C.ar    1  LIG1        0.1276
      8 H          -0.4090    3.4165   -0.0003 H       1  LIG1        0.0654
      9 H          -1.9035    1.3287    0.0016 H       1  LIG1        0.0621
     10 C          -0.5710   -1.1111    0.0005 C.3     1  LIG1       -0.0397
     11 H           0.0257   -1.8420    0.5050 H       1  LIG1        0.0278
     12 H          -0.7416   -1.4245   -1.0083 H       1  LIG1        0.0278
     13 H          -1.5088   -1.0063    0.5049 H       1  LIG1        0.0278
     14 O           2.1896    3.5590   -0.0012 O.3     1  LIG1       -0.5061
     15 H           1.5802    4.3008   -0.0013 H       1  LIG1        0.2922
     16 C           3.4844    1.1831   -0.0005 C.ar    1  LIG1        0.1635
     17 C           4.4399    0.1881   -0.0006 C.ar    1  LIG1        0.1139
     18 C           5.7279    0.8499   -0.0007 C.ar    1  LIG1        0.1845
     19 C           5.4738    2.2061   -0.0008 C.ar    1  LIG1        0.1802
     20 O           4.0977    2.4367   -0.0007 O.2     1  LIG1       -0.4490
     21 N           4.2495   -1.0979   -0.0005 N.pl3   1  LIG1       -0.3522
     22 H           3.3930   -1.3081   -0.4718 H       1  LIG1        0.1425
     23 H           5.0083   -1.5472   -0.4719 H       1  LIG1        0.1425
     24 O           6.8846    0.2566   -0.0008 O.3     1  LIG1       -0.5020
     25 H           7.5827    0.9155   -0.0008 H       1  LIG1        0.2924
     26 C           5.5902    4.5522   -0.0218 C.ar    1  LIG1        0.0391
     27 C           6.1999    3.2844   -0.0008 C.ar    1  LIG1        0.0394
     28 C           7.5941    3.2154    0.0202 C.ar    1  LIG1       -0.0445
     29 C           8.3258    4.4041    0.0192 C.ar    1  LIG1       -0.0222
     30 C           7.6251    5.6240   -0.0029 C.ar    1  LIG1        0.0936
     31 N           6.2806    5.7090   -0.0231 N.ar    1  LIG1       -0.2524
     32 H           8.1059    2.2427    0.0360 H       1  LIG1        0.0628
     33 H           4.2955    4.6679   -0.0417 H       1  LIG1        0.0837
     34 C           9.6260    4.3932    0.0381 C.3     1  LIG1       -0.0376
     35 H           9.9826    5.2639    0.5476 H       1  LIG1        0.0278
     36 H           9.9972    4.3902   -0.9655 H       1  LIG1        0.0278
     37 H           9.9679    3.5166    0.5476 H       1  LIG1        0.0278
     38 C           8.2619    6.7574   -0.0045 C.ar    1  LIG1        0.1089
     39 C           9.5958    7.0195   -0.0060 C.ar    1  LIG1        0.1595
     40 C           9.7519    8.4430   -0.0064 C.ar    1  LIG1        0.0920
     41 C           8.5066    8.9881   -0.0069 C.ar    1  LIG1        0.0680
     42 N           7.5914    7.9596   -0.0053 N.ar    1  LIG1       -0.3490
     43 H           6.6033    8.0680   -0.0053 H       1  LIG1        0.1661
     44 O          10.5510    6.1376   -0.0056 O.3     1  LIG1       -0.5034
     45 H          11.4003    6.5851   -0.0054 H       1  LIG1        0.2923
     46 C          10.8754    9.0969   -0.0067 C.1     1  LIG1       -0.0638
     47 C          11.9136    9.7012   -0.0070 C.1     1  LIG1       -0.1137
     48 H          12.8383   10.2395   -0.0073 H       1  LIG1        0.1232
     49 C           9.0974   11.2585   -0.0071 C.ar    1  LIG1        0.0345
     50 C           8.6389   12.5901   -0.0063 C.ar    1  LIG1       -0.0295
     51 C           8.1305   10.2324   -0.0075 C.ar    1  LIG1        0.0205
     52 C           7.2783   12.8892   -0.0064 C.ar    1  LIG1        0.0221
     53 H           9.3681   13.3973   -0.0057 H       1  LIG1        0.0643
     54 C           6.7721   10.5304   -0.0077 C.ar    1  LIG1       -0.0472
     55 C           6.3364   11.8596   -0.0073 C.ar    1  LIG1       -0.0391
     56 H           6.0460    9.7215   -0.0080 H       1  LIG1        0.0627
     57 N          10.3793   11.0423   -0.0072 N.pl3   1  LIG1       -0.3574
     58 H          10.5722   10.1818   -0.4786 H       1  LIG1        0.1423
     59 H          10.8438   11.7920   -0.4786 H       1  LIG1        0.1423
     60 C           5.0650   12.1322   -0.0073 C.3     1  LIG1       -0.0390
     61 H           4.5331   11.3527    0.4971 H       1  LIG1        0.0278
     62 H           4.7162   12.2069   -1.0162 H       1  LIG1        0.0278
     63 H           4.8994   13.0612    0.4971 H       1  LIG1        0.0278
     64 C           6.8902   14.1298   -0.0058 C.ar    1  LIG1        0.1396
     65 C           7.5199   15.3572   -0.0052 C.ar    1  LIG1        0.0267
     66 C           6.4748   16.3596   -0.0046 C.ar    1  LIG1        0.1659
     67 C           5.2753   15.6779   -0.0048 C.ar    1  LIG1        0.1749
     68 O           5.5052   14.3017   -0.0057 O.2     1  LIG1       -0.4513
     69 H           8.7978   15.5959   -0.0052 H       1  LIG1        0.0692
     70 O           6.6593   17.6465   -0.0040 O.3     1  LIG1       -0.4913
     71 C           8.0614   17.9277   -0.0038 C.3     1  LIG1        0.0790
     72 H           8.2128   18.9869   -0.0035 H       1  LIG1        0.0660
     73 H           8.5102   17.5030    0.8698 H       1  LIG1        0.0660
     74 H           8.5103   17.5035   -0.8775 H       1  LIG1        0.0660
     75 C           3.0190   15.0239   -0.0041 C.3     1  LIG1        0.1062
     76 C           4.0193   16.0133   -0.0045 C.2     1  LIG1        0.0219
     77 C           3.6307   17.3542   -0.0041 C.2     1  LIG1       -0.0663
     78 C           2.2685   17.6591   -0.0036 C.3     1  LIG1        0.0217
     79 C           1.3432   16.5992   -0.0035 C.2     1  LIG1        0.1133
     80 N           1.7005   15.3001   -0.0036 N.2     1  LIG1       -0.2690
     81 H           4.3838   18.1549   -0.0054 H       1  LIG1        0.0583
     82 H           3.3311   13.7619   -0.0043 H       1  LIG1        0.0620
     83 C           1.8556   18.8921   -0.0034 C.3     2  LIG2       -0.0681
     84 H           0.9140   18.9529    0.5011 H       2  LIG2        0.0265
     85 H           1.7423   19.2304   -1.0122 H       3  UNK3        0.0000
     86 H           2.5709   19.5076    0.5010 H       1  LIG1        0.0227
     87 C           0.0642   16.8324   -0.0029 C.ar    1  LIG1        0.1177
     88 C          -0.6179   18.0083   -0.0029 C.ar    1  LIG1        0.2466
     89 C          -2.0146   17.6924   -0.0010 C.ar    1  LIG1        0.1820
     90 C          -2.1246   16.3374   -0.0017 C.ar    1  LIG1        0.0482
     91 N          -0.8543   15.8070   -0.0024 N.ar    1  LIG1       -0.3533
     92 H          -0.6350   14.8374   -0.0031 H       1  LIG1        0.1656
     93 H          -3.1788   15.5767   -0.0008 H       1  LIG1        0.0845
     94 O          -0.0950   19.1985   -0.0029 O.3     1  LIG1       -0.2817
     95 C           1.3312   19.0932   -0.0030 C.3     4  LIG4       -0.0531
     96 H           1.7611   20.0730   -0.0032 H       2  LIG2        0.0265
     97 H           1.6498   18.5641    0.8707 H       1  LIG1        0.0227
     98 H           1.6497   18.5638   -0.8766 H       1  LIG1        0.0227
     99 O          -2.9988   18.5418    0.0006 O.3     1  LIG1       -0.5022
    100 H          -3.8326   18.0661    0.0010 H       1  LIG1        0.2923
@<TRIPOS>BOND
     1    62    60    1
     2    12    10    1
     3    36    34    1
     4    74    71    1
     5    98    83    1
     6    59    57    1
     7    58    57    1
     8    23    21    1
     9    22    21    1
    10    33    26    1
    11    31    26   ar
    12    31    30   ar
    13    26    27   ar
    14    56    54    1
    15    54    51   ar
    16    54    55   ar
    17    51    49   ar
    18    51    41    1
    19    48    47    1
    20    60    55    1
    21    60    63    1
    22    60    61    1
    23    55    52   ar
    24    57    49    1
    25    49    50   ar
    26    47    46    3
    27    41    40   ar
    28    41    42   ar
    29    46    40    1
    30    52    50   ar
    31    52    64    1
    32    40    39   ar
    33    50    53    1
    34    39    44    1
    35    39    38   ar
    36    64    68   ar
    37    64    65   ar
    38    68    67   ar
    39    44    45    1
    40    81    77    1
    41    43    42    1
    42    42    38   ar
    43    65    69    1
    44    65    66   ar
    45    67    66   ar
    46    67    76    1
    47    66    70    1
    48    38    30    1
    49    76    75    1
    50    76    77    2
    51    82    75    1
    52    75    80    1
    53    77    78    1
    54    70    71    1
    55    71    72    1
    56    71    73    1
    57    80    79    2
    58    79    87    1
    59    83    86    1
    60    83    97    1
    61    96    95    1
    62    92    91    1
    63    95    84    1
    64    94    88    1
    65    87    88   ar
    66    87    91   ar
    67    88    89   ar
    68    30    29   ar
    69    91    90   ar
    70    90    89   ar
    71    90    93    1
    72    15    14    1
    73    14     7    1
    74    89    99    1
    75    27    19    1
    76    27    28   ar
    77     7     6   ar
    78     7     4   ar
    79    25    24    1
    80    24    18    1
    81    19    20   ar
    82    19    18   ar
    83    20    16   ar
    84    18    17   ar
    85    17    16   ar
    86    17    21    1
    87    16     4    1
    88     6     8    1
    89     6     3   ar
    90     4     2   ar
    91     1     2   ar
    92     1     3   ar
    93     1    10    1
    94     2     5    1
    95     3     9    1
    96    10    13    1
    97    10    11    1
    98    99   100    1
    99    29    28   ar
   100    29    34    1
   101    28    32    1
   102    34    37    1
   103    34    35    1
