@<TRIPOS>MOLECULE
mol_data/noopt/geoms/mol2/4if12ed(20)4ee(80)4ei(140).out
 55 58 0 0 0
SMALL
GASTEIGER

@<TRIPOS>ATOM
      1 C           0.0509    0.0309    0.0002 C.ar    1  LIG1       -0.0495
      2 C           1.4592    0.0309    0.0002 C.ar    1  LIG1       -0.0446
      3 C          -0.6045    1.2792    0.0002 C.ar    1  LIG1       -0.0554
      4 C           2.1849    1.2200   -0.0004 C.ar    1  LIG1        0.0601
      5 H           1.9850   -0.9213    0.0004 H       1  LIG1        0.0628
      6 C           0.1195    2.4666   -0.0004 C.ar    1  LIG1       -0.0192
      7 C           1.5181    2.4458   -0.0008 C.ar    1  LIG1        0.1275
      8 H          -0.4090    3.4165   -0.0003 H       1  LIG1        0.0654
      9 H          -1.9035    1.3287    0.0016 H       1  LIG1        0.0621
     10 C          -0.5710   -1.1111    0.0005 C.3     1  LIG1       -0.0397
     11 H           0.0257   -1.8420    0.5050 H       1  LIG1        0.0278
     12 H          -0.7416   -1.4245   -1.0083 H       1  LIG1        0.0278
     13 H          -1.5088   -1.0063    0.5049 H       1  LIG1        0.0278
     14 O           2.1896    3.5590   -0.0012 O.3     1  LIG1       -0.5061
     15 H           1.5802    4.3008   -0.0013 H       1  LIG1        0.2922
     16 C           3.4844    1.1831   -0.0005 C.ar    1  LIG1        0.1558
     17 C           4.4412    0.2338    0.2933 C.ar    1  LIG1        0.0885
     18 C           5.7283    0.8627    0.0811 C.ar    1  LIG1        0.1134
     19 C           5.4724    2.1551   -0.3285 C.ar    1  LIG1        0.1554
     20 O           4.0960    2.3766   -0.3867 O.2     1  LIG1       -0.4521
     21 C           4.2526   -0.9912    0.6855 C.1     1  LIG1       -0.0645
     22 C           4.0783   -2.1231    1.0480 C.1     1  LIG1       -0.1138
     23 H           3.9231   -3.1313    1.3708 H       1  LIG1        0.1232
     24 N           7.9066   -0.2042    0.4013 N.1     1  LIG1       -0.1907
     25 C           6.8857    0.2958    0.2513 C.1     1  LIG1        0.1042
     26 C           6.9394    3.8667    0.3210 C.ar    1  LIG1        0.0360
     27 C           7.7072    4.9731   -0.0911 C.ar    1  LIG1       -0.0367
     28 C           6.1969    3.1815   -0.6623 C.ar    1  LIG1        0.0351
     29 C           7.7362    5.3806   -1.4228 C.ar    1  LIG1       -0.0001
     30 H           8.2875    5.5162    0.6515 H       1  LIG1        0.0636
     31 C           6.2255    3.5879   -1.9920 C.ar    1  LIG1       -0.0339
     32 C           6.9947    4.6893   -2.3817 C.ar    1  LIG1        0.0332
     33 H           5.6441    3.0432   -2.7315 H       1  LIG1        0.0637
     34 C           6.9527    3.5342    1.5777 C.1     1  LIG1       -0.0689
     35 C           6.9649    3.2269    2.7389 C.1     1  LIG1       -0.1139
     36 H           6.9758    2.9532    3.7732 H       1  LIG1        0.1232
     37 C           7.0174    5.0647   -3.6261 C.1     1  LIG1       -0.0690
     38 C           7.0384    5.4116   -4.7759 C.1     1  LIG1       -0.1139
     39 H           7.0572    5.7206   -5.8002 H       1  LIG1        0.1232
     40 C           8.1979    7.6698   -1.1981 C.ar    1  LIG1        0.0324
     41 C           9.0046    8.7496   -1.6065 C.ar    1  LIG1       -0.0455
     42 C           8.4560    6.4065   -1.7683 C.ar    1  LIG1       -0.0011
     43 C          10.0241    8.5811   -2.5407 C.ar    1  LIG1       -0.0576
     44 H           8.8223    9.7331   -1.1792 H       1  LIG1        0.0630
     45 C           9.4737    6.2377   -2.7010 C.ar    1  LIG1       -0.0499
     46 C          10.2645    7.3226   -3.0937 C.ar    1  LIG1       -0.0498
     47 H           9.6530    5.2536   -3.1264 H       1  LIG1        0.0627
     48 H          10.7497    9.5999   -2.8950 H       1  LIG1        0.0621
     49 C           7.2622    7.8890   -0.3227 C.1     1  LIG1       -0.0691
     50 C           6.3976    8.0916    0.4862 C.1     1  LIG1       -0.1139
     51 H           5.6274    8.2720    1.2067 H       1  LIG1        0.1232
     52 C          11.2145    7.1589   -3.9663 C.3     1  LIG1       -0.0397
     53 H          11.9571    7.9174   -3.8316 H       1  LIG1        0.0278
     54 H          10.8080    7.2290   -4.9536 H       1  LIG1        0.0278
     55 H          11.6602    6.1954   -3.8317 H       1  LIG1        0.0278
@<TRIPOS>BOND
     1    39    38    1
     2    54    52    1
     3    38    37    3
     4    52    55    1
     5    52    53    1
     6    52    46    1
     7    37    32    1
     8    47    45    1
     9    46    45   ar
    10    46    43   ar
    11    48    43    1
    12    33    31    1
    13    45    42   ar
    14    43    41   ar
    15    32    31   ar
    16    32    29   ar
    17    31    28   ar
    18    42    29    1
    19    42    40   ar
    20    41    40   ar
    21    41    44    1
    22    29    27   ar
    23    40    49    1
    24    12    10    1
    25    28    19    1
    26    28    26   ar
    27    20    19   ar
    28    20    16   ar
    29    19    18   ar
    30    49    50    3
    31    27    26   ar
    32    27    30    1
    33    15    14    1
    34    14     7    1
    35     7     4   ar
    36     7     6   ar
    37    16     4    1
    38    16    17   ar
    39     4     2   ar
    40     6     8    1
    41     6     3   ar
    42     2     1   ar
    43     2     5    1
    44     3     1   ar
    45     3     9    1
    46     1    10    1
    47    10    13    1
    48    10    11    1
    49    18    25    1
    50    18    17   ar
    51    25    24    3
    52    17    21    1
    53    26    34    1
    54    50    51    1
    55    21    22    3
    56    22    23    1
    57    34    35    3
    58    35    36    1
