@<TRIPOS>MOLECULE
mol_data/noopt/geoms/mol2/4if13ad(20)4fd13hi(140).out
 50 53 0 0 0
SMALL
GASTEIGER

@<TRIPOS>ATOM
      1 C           0.0509    0.0309    0.0002 C.ar    1  LIG1       -0.0496
      2 C           1.4592    0.0309    0.0002 C.ar    1  LIG1       -0.0462
      3 C          -0.6045    1.2792    0.0002 C.ar    1  LIG1       -0.0554
      4 C           2.1849    1.2200   -0.0004 C.ar    1  LIG1        0.0400
      5 H           1.9850   -0.9213    0.0004 H       1  LIG1        0.0628
      6 C           0.1195    2.4666   -0.0004 C.ar    1  LIG1       -0.0193
      7 C           1.5181    2.4458   -0.0008 C.ar    1  LIG1        0.1260
      8 H          -0.4090    3.4165   -0.0003 H       1  LIG1        0.0654
      9 H          -1.9035    1.3287    0.0016 H       1  LIG1        0.0621
     10 C          -0.5710   -1.1111    0.0005 C.3     1  LIG1       -0.0397
     11 H           0.0257   -1.8420    0.5050 H       1  LIG1        0.0278
     12 H          -0.7416   -1.4245   -1.0083 H       1  LIG1        0.0278
     13 H          -1.5088   -1.0063    0.5049 H       1  LIG1        0.0278
     14 O           2.1896    3.5590   -0.0012 O.3     1  LIG1       -0.5061
     15 H           1.5802    4.3008   -0.0013 H       1  LIG1        0.2922
     16 C           3.4844    1.1831   -0.0005 C.ar    1  LIG1        0.0517
     17 C           4.3382    0.1774    0.3275 C.ar    1  LIG1       -0.0183
     18 C           5.6702    0.6724    0.1505 C.ar    1  LIG1        0.0777
     19 C           5.5718    1.9582   -0.2796 C.ar    1  LIG1        0.0680
     20 N           4.2353    2.2751   -0.3730 N.ar    1  LIG1       -0.3529
     21 H           3.8705    3.1528   -0.6639 H       1  LIG1        0.1659
     22 H           4.0033   -1.0128    0.7292 H       1  LIG1        0.0652
     23 N           7.7448   -0.5626    0.5462 N.1     1  LIG1       -0.1908
     24 C           6.7725    0.0162    0.3608 C.1     1  LIG1        0.1013
     25 C           7.8313    2.3940   -0.7367 C.ar    1  LIG1        0.1267
     26 C           8.7968    3.3679   -1.0570 C.ar    1  LIG1       -0.0091
     27 C           6.4972    2.8214   -0.5768 C.ar    1  LIG1        0.0422
     28 C           8.4515    4.7085   -1.2123 C.ar    1  LIG1        0.0209
     29 H           9.8321    3.0598   -1.1846 H       1  LIG1        0.0661
     30 C           6.1520    4.1597   -0.7318 C.ar    1  LIG1       -0.0311
     31 C           7.1256    5.1121   -1.0504 C.ar    1  LIG1        0.0618
     32 H           5.1165    4.4643   -0.6032 H       1  LIG1        0.0638
     33 O           8.2142    1.1587   -0.6049 O.3     1  LIG1       -0.5061
     34 H           9.1729    1.1221   -0.5724 H       1  LIG1        0.2922
     35 N           6.5071    7.4638   -1.3204 N.1     1  LIG1       -0.1908
     36 C           6.7970    6.3617   -1.1938 C.1     1  LIG1        0.0998
     37 C           9.3686    5.5812   -1.5082 C.ar    1  LIG1        0.0690
     38 C           9.5308    6.8654   -1.0930 C.ar    1  LIG1        0.0531
     39 C          10.7091    7.3745   -1.7279 C.ar    1  LIG1       -0.0119
     40 C          11.2160    6.3784   -2.5018 C.ar    1  LIG1        0.0069
     41 N          10.3981    5.2789   -2.3706 N.ar    1  LIG1       -0.3589
     42 H          10.5304    4.4051   -2.8257 H       1  LIG1        0.1654
     43 H          12.2680    6.3557   -3.2652 H       1  LIG1        0.0810
     44 N           8.7559    7.5098   -0.2719 N.pl3   1  LIG1       -0.3561
     45 H           8.8504    8.4932   -0.4268 H       1  LIG1        0.1424
     46 H           7.8062    7.2377   -0.4268 H       1  LIG1        0.1424
     47 C          11.2058    8.5684   -1.5916 C.3     1  LIG1       -0.0365
     48 H          10.5152    9.1827   -1.0525 H       1  LIG1        0.0279
     49 H          11.3827    8.9936   -2.5574 H       1  LIG1        0.0279
     50 H          12.1284    8.5114   -1.0526 H       1  LIG1        0.0279
@<TRIPOS>BOND
     1    43    40    1
     2    42    41    1
     3    49    47    1
     4    40    41   ar
     5    40    39   ar
     6    41    37   ar
     7    39    47    1
     8    39    38   ar
     9    47    50    1
    10    47    48    1
    11    37    28    1
    12    37    38   ar
    13    35    36    3
    14    28    26   ar
    15    28    31   ar
    16    36    31    1
    17    29    26    1
    18    38    44    1
    19    26    25   ar
    20    31    30   ar
    21    12    10    1
    22    25    33    1
    23    25    27   ar
    24    30    32    1
    25    30    27   ar
    26    21    20    1
    27    33    34    1
    28    27    19    1
    29    46    44    1
    30    45    44    1
    31    20    19   ar
    32    20    16   ar
    33    19    18   ar
    34    15    14    1
    35    14     7    1
    36     7     6   ar
    37     7     4   ar
    38    16     4    1
    39    16    17   ar
    40     6     8    1
    41     6     3   ar
    42     4     2   ar
    43     3     1   ar
    44     3     9    1
    45     2     1   ar
    46     2     5    1
    47     1    10    1
    48    10    13    1
    49    10    11    1
    50    18    17   ar
    51    18    24    1
    52    17    22    1
    53    24    23    3
