@<TRIPOS>MOLECULE
mol_data/noopt/geoms/mol2/4if4if-4if4if-.out
 58 57 0 0 0
SMALL
GASTEIGER

@<TRIPOS>ATOM
      1 C           0.0509    0.0309    0.0002 C.ar    1  LIG1       -0.0498
      2 C           1.4592    0.0309    0.0002 C.ar    1  LIG1       -0.0505
      3 C          -0.6045    1.2792    0.0002 C.ar    1  LIG1       -0.0582
      4 C           2.1849    1.2200   -0.0004 C.ar    1  LIG1       -0.0096
      5 H           1.9850   -0.9213    0.0004 H       1  LIG1        0.0626
      6 C           0.1195    2.4666   -0.0004 C.ar    1  LIG1       -0.0532
      7 C           1.5181    2.4458   -0.0008 C.ar    1  LIG1       -0.0096
      8 H          -0.4090    3.4165   -0.0003 H       1  LIG1        0.0624
      9 H          -1.9035    1.3287    0.0016 H       1  LIG1        0.0620
     10 C          -0.5710   -1.1111    0.0005 C.3     1  LIG1       -0.0397
     11 H           0.0257   -1.8420    0.5050 H       1  LIG1        0.0278
     12 H          -0.7416   -1.4245   -1.0083 H       1  LIG1        0.0278
     13 H          -1.5088   -1.0063    0.5049 H       1  LIG1        0.0278
     14 O           2.1896    3.5590   -0.0012 O.3     2  HOH2       -0.4105
     15 H           1.5802    4.3008   -0.0013 H       0  HOH0        0.2052
     16 C           4.2212    2.3851    0.0002 C.ar    1  LIG1       -0.0387
     17 C           5.6264    2.2916    0.0016 C.ar    1  LIG1       -0.0497
     18 C           3.4843    1.1831   -0.0005 C.ar    1  LIG1       -0.0135
     19 C           6.2715    1.0569    0.0017 C.ar    1  LIG1       -0.0096
     20 H           6.2143    3.2067    0.0024 H       1  LIG1        0.0627
     21 C           4.1278   -0.0498   -0.0004 C.ar    1  LIG1       -0.0454
     22 C           5.5247   -0.1219    0.0006 C.ar    1  LIG1       -0.0090
     23 H           3.5374   -0.9625   -0.0009 H       1  LIG1        0.0630
     24 C           3.6765    3.5659   -0.0001 C.3     1  LIG1       -0.0231
     25 H           2.7338    3.5239    0.5043 H       0  HOH0        0.2052
     26 H           3.5272    3.8895   -1.0090 H       1  LIG1        0.0316
     27 H           4.3204    4.2558    0.5042 H       1  LIG1        0.0316
     28 O           6.1208   -1.2773    0.0008 O.3     3  HOH3       -0.2528
     29 H           7.0719   -1.1471    0.0009 H       4  UNK4        0.0000
     30 C           8.2259   -0.2409    0.0043 C.ar    1  LIG1       -0.0387
     31 C           9.6342   -0.2409    0.0071 C.ar    1  LIG1       -0.0497
     32 C           7.5705    1.0074    0.0029 C.ar    1  LIG1       -0.0135
     33 C          10.3599    0.9482    0.0079 C.ar    1  LIG1       -0.0095
     34 H          10.1600   -1.1931    0.0084 H       1  LIG1        0.0627
     35 C           8.2945    2.1948    0.0036 C.ar    1  LIG1       -0.0454
     36 C           9.6931    2.1740    0.0060 C.ar    1  LIG1       -0.0090
     37 H           7.7660    3.1447    0.0026 H       1  LIG1        0.0630
     38 C           7.6040   -1.3829    0.0034 C.3     1  LIG1       -0.0231
     39 H           8.2005   -2.1142    0.5076 H       1  LIG1        0.0316
     40 H           7.4338   -1.6956   -1.0056 H       1  LIG1        0.0316
     41 H           6.6660   -1.2785    0.5076 H       0  HOH0        0.2528
     42 O          10.3646    3.2872    0.0069 O.3     5  HOH5       -0.4105
     43 H           9.7552    4.0290    0.0071 H       0  HOH0        0.2052
     44 C          12.3962    2.1133    0.0125 C.ar    1  LIG1       -0.0391
     45 C          13.8014    2.0197    0.0167 C.ar    1  LIG1       -0.0545
     46 C          11.6593    0.9113    0.0104 C.ar    1  LIG1       -0.0107
     47 C          14.4465    0.7851    0.0181 C.ar    1  LIG1       -0.0199
     48 H          14.3892    2.9349    0.0186 H       1  LIG1        0.0622
     49 C          12.3028   -0.3216    0.0118 C.ar    1  LIG1       -0.0122
     50 C          13.6997   -0.3937    0.0156 C.ar    1  LIG1        0.1175
     51 H          11.7124   -1.2343    0.0102 H       1  LIG1        0.0660
     52 H          15.7455    0.7356    0.0219 H       1  LIG1        0.0654
     53 C          11.8515    3.2940    0.0110 C.3     1  LIG1       -0.0231
     54 H          10.9086    3.2525    0.5151 H       0  HOH0        0.2052
     55 H          11.7025    3.6169   -0.9982 H       1  LIG1        0.0316
     56 H          12.4952    3.9843    0.5150 H       1  LIG1        0.0316
     57 O          14.2958   -1.5491    0.0171 O.3     1  LIG1       -0.5067
     58 H          15.2469   -1.4189    0.0175 H       1  LIG1        0.2921
@<TRIPOS>BOND
     1    26    24    1
     2    12    10    1
     3    40    38    1
     4    55    53    1
     5    15    14    1
     6    14    25    1
     7    23    21    1
     8     7     6   ar
     9     7     4   ar
    10    18    21   ar
    11    18     4    1
    12    18    16   ar
    13    21    22   ar
    14     6     8    1
    15     6     3   ar
    16     4     2   ar
    17    24    16    1
    18    24    27    1
    19    16    17   ar
    20     3     1   ar
    21     3     9    1
    22     2     1   ar
    23     2     5    1
    24     1    10    1
    25    10    13    1
    26    10    11    1
    27    22    19   ar
    28    28    41    1
    29    17    19   ar
    30    17    20    1
    31    19    32    1
    32    37    35    1
    33    32    35   ar
    34    32    30   ar
    35    38    30    1
    36    38    39    1
    37    35    36   ar
    38    30    31   ar
    39    36    33   ar
    40    42    43    1
    41    42    54    1
    42    31    33   ar
    43    31    34    1
    44    33    46    1
    45    51    49    1
    46    46    49   ar
    47    46    44   ar
    48    53    44    1
    49    53    56    1
    50    49    50   ar
    51    44    45   ar
    52    50    57    1
    53    50    47   ar
    54    45    47   ar
    55    45    48    1
    56    57    58    1
    57    47    52    1
