@<TRIPOS>MOLECULE
mol_data/noopt/geoms/mol2/4if4if.out
 30 31 0 0 0
SMALL
GASTEIGER

@<TRIPOS>ATOM
      1 C           0.0509    0.0309    0.0002 C.ar    1  LIG1       -0.0496
      2 C           1.4592    0.0309    0.0002 C.ar    1  LIG1       -0.0476
      3 C          -0.6045    1.2792    0.0002 C.ar    1  LIG1       -0.0554
      4 C           2.1849    1.2200   -0.0004 C.ar    1  LIG1        0.0242
      5 H           1.9850   -0.9213    0.0004 H       1  LIG1        0.0627
      6 C           0.1195    2.4666   -0.0004 C.ar    1  LIG1       -0.0193
      7 C           1.5181    2.4458   -0.0008 C.ar    1  LIG1        0.1246
      8 H          -0.4090    3.4165   -0.0003 H       1  LIG1        0.0654
      9 H          -1.9035    1.3287    0.0016 H       1  LIG1        0.0621
     10 C          -0.5710   -1.1111    0.0005 C.3     1  LIG1       -0.0397
     11 H           0.0257   -1.8420    0.5050 H       1  LIG1        0.0278
     12 H          -0.7416   -1.4245   -1.0083 H       1  LIG1        0.0278
     13 H          -1.5088   -1.0063    0.5049 H       1  LIG1        0.0278
     14 O           2.1896    3.5590   -0.0012 O.3     1  LIG1       -0.5062
     15 H           1.5802    4.3008   -0.0013 H       1  LIG1        0.2922
     16 C           4.1518   -0.0588    0.0002 C.ar    1  LIG1       -0.0424
     17 C           5.5600   -0.0451    0.0016 C.ar    1  LIG1       -0.0548
     18 C           3.4843    1.1831   -0.0005 C.ar    1  LIG1       -0.0080
     19 C           6.2742    1.1510    0.0017 C.ar    1  LIG1       -0.0199
     20 H           6.0950   -0.9922    0.0024 H       1  LIG1        0.0622
     21 C           4.1968    2.3775   -0.0004 C.ar    1  LIG1       -0.0121
     22 C           5.5955    2.3702    0.0006 C.ar    1  LIG1        0.1175
     23 H           3.6591    3.3222   -0.0009 H       1  LIG1        0.0660
     24 H           7.5740    1.1267    0.0029 H       1  LIG1        0.0654
     25 C           3.5410   -1.2067   -0.0001 C.3     1  LIG1       -0.0391
     26 H           4.1447   -1.9321    0.5043 H       1  LIG1        0.0278
     27 H           3.3736   -1.5215   -1.0090 H       1  LIG1        0.0278
     28 H           2.6021   -1.1113    0.5042 H       1  LIG1        0.0278
     29 O           6.2562    3.4899    0.0008 O.3     1  LIG1       -0.5067
     30 H           5.6396    4.2257    0.0009 H       1  LIG1        0.2921
@<TRIPOS>BOND
     1    27    25    1
     2    12    10    1
     3    15    14    1
     4    14     7    1
     5    23    21    1
     6     7     4   ar
     7     7     6   ar
     8    18    21   ar
     9    18     4    1
    10    18    16   ar
    11    21    22   ar
    12     4     2   ar
    13     6     8    1
    14     6     3   ar
    15    25    16    1
    16    25    28    1
    17    25    26    1
    18     2     1   ar
    19     2     5    1
    20     3     1   ar
    21     3     9    1
    22     1    10    1
    23    16    17   ar
    24    10    13    1
    25    10    11    1
    26    22    29    1
    27    22    19   ar
    28    29    30    1
    29    17    19   ar
    30    17    20    1
    31    19    24    1
