@<TRIPOS>MOLECULE
mol_data/noopt/geoms/mol2/4if4if-.out
 30 30 0 0 0
SMALL
GASTEIGER

@<TRIPOS>ATOM
      1 C           0.0509    0.0309    0.0002 C.ar    1  LIG1       -0.0498
      2 C           1.4592    0.0309    0.0002 C.ar    1  LIG1       -0.0505
      3 C          -0.6045    1.2792    0.0002 C.ar    1  LIG1       -0.0582
      4 C           2.1849    1.2200   -0.0004 C.ar    1  LIG1       -0.0095
      5 H           1.9850   -0.9213    0.0004 H       1  LIG1        0.0626
      6 C           0.1195    2.4666   -0.0004 C.ar    1  LIG1       -0.0532
      7 C           1.5181    2.4458   -0.0008 C.ar    1  LIG1       -0.0096
      8 H          -0.4090    3.4165   -0.0003 H       1  LIG1        0.0624
      9 H          -1.9035    1.3287    0.0016 H       1  LIG1        0.0620
     10 C          -0.5710   -1.1111    0.0005 C.3     1  LIG1       -0.0397
     11 H           0.0257   -1.8420    0.5050 H       1  LIG1        0.0278
     12 H          -0.7416   -1.4245   -1.0083 H       1  LIG1        0.0278
     13 H          -1.5088   -1.0063    0.5049 H       1  LIG1        0.0278
     14 O           2.1896    3.5590   -0.0012 O.3     2  HOH2       -0.4105
     15 H           1.5802    4.3008   -0.0013 H       0  HOH0        0.2052
     16 C           4.2212    2.3851    0.0002 C.ar    1  LIG1       -0.0391
     17 C           5.6264    2.2916    0.0016 C.ar    1  LIG1       -0.0545
     18 C           3.4843    1.1831   -0.0005 C.ar    1  LIG1       -0.0107
     19 C           6.2715    1.0569    0.0017 C.ar    1  LIG1       -0.0199
     20 H           6.2143    3.2067    0.0024 H       1  LIG1        0.0622
     21 C           4.1278   -0.0498   -0.0004 C.ar    1  LIG1       -0.0122
     22 C           5.5247   -0.1219    0.0006 C.ar    1  LIG1        0.1175
     23 H           3.5374   -0.9625   -0.0009 H       1  LIG1        0.0660
     24 H           7.5706    1.0074    0.0029 H       1  LIG1        0.0654
     25 C           3.6765    3.5659   -0.0001 C.3     1  LIG1       -0.0231
     26 H           2.7338    3.5239    0.5043 H       0  HOH0        0.2052
     27 H           3.5272    3.8895   -1.0090 H       1  LIG1        0.0316
     28 H           4.3204    4.2558    0.5042 H       1  LIG1        0.0316
     29 O           6.1208   -1.2773    0.0008 O.3     1  LIG1       -0.5067
     30 H           7.0719   -1.1471    0.0009 H       1  LIG1        0.2921
@<TRIPOS>BOND
     1    27    25    1
     2    12    10    1
     3    15    14    1
     4    14    26    1
     5    23    21    1
     6     7     4   ar
     7     7     6   ar
     8    18    21   ar
     9    18     4    1
    10    18    16   ar
    11    21    22   ar
    12     4     2   ar
    13     6     8    1
    14     6     3   ar
    15    25    16    1
    16    25    28    1
    17    16    17   ar
    18     1     3   ar
    19     1     2   ar
    20     1    10    1
    21     3     9    1
    22     2     5    1
    23    10    13    1
    24    10    11    1
    25    22    29    1
    26    22    19   ar
    27    29    30    1
    28    17    19   ar
    29    17    20    1
    30    19    24    1
