@<TRIPOS>MOLECULE
mol_data/noopt/geoms/mol2/4if4if-4if-4if-.out
 58 60 0 0 0
SMALL
GASTEIGER

@<TRIPOS>ATOM
      1 C           0.0509    0.0309    0.0002 C.ar    1  LIG1       -0.0498
      2 C           1.4592    0.0309    0.0002 C.ar    1  LIG1       -0.0505
      3 C          -0.6045    1.2792    0.0002 C.ar    1  LIG1       -0.0582
      4 C           2.1849    1.2200   -0.0004 C.ar    1  LIG1       -0.0095
      5 H           1.9850   -0.9213    0.0004 H       1  LIG1        0.0626
      6 C           0.1195    2.4666   -0.0004 C.ar    1  LIG1       -0.0532
      7 C           1.5181    2.4458   -0.0008 C.ar    1  LIG1       -0.0096
      8 H          -0.4090    3.4165   -0.0003 H       1  LIG1        0.0624
      9 H          -1.9035    1.3287    0.0016 H       1  LIG1        0.0620
     10 C          -0.5710   -1.1111    0.0005 C.3     1  LIG1       -0.0397
     11 H           0.0257   -1.8420    0.5050 H       1  LIG1        0.0278
     12 H          -0.7416   -1.4245   -1.0083 H       1  LIG1        0.0278
     13 H          -1.5088   -1.0063    0.5049 H       1  LIG1        0.0278
     14 O           2.1896    3.5590   -0.0012 O.3     2  HOH2       -0.4105
     15 H           1.5802    4.3008   -0.0013 H       0  HOH0        0.2052
     16 C           4.2212    2.3851    0.0002 C.ar    1  LIG1       -0.0385
     17 C           5.6264    2.2916    0.0016 C.ar    1  LIG1       -0.0468
     18 C           3.4843    1.1831   -0.0005 C.ar    1  LIG1       -0.0106
     19 C           6.2715    1.0569    0.0017 C.ar    1  LIG1        0.0242
     20 H           6.2143    3.2067    0.0024 H       1  LIG1        0.0628
     21 C           4.1278   -0.0498   -0.0004 C.ar    1  LIG1       -0.0116
     22 C           5.5247   -0.1219    0.0006 C.ar    1  LIG1        0.1251
     23 H           3.5374   -0.9625   -0.0009 H       1  LIG1        0.0660
     24 C           3.6765    3.5659   -0.0001 C.3     1  LIG1       -0.0231
     25 H           2.7338    3.5239    0.5043 H       0  HOH0        0.2052
     26 H           3.5272    3.8895   -1.0090 H       1  LIG1        0.0316
     27 H           4.3204    4.2558    0.5042 H       1  LIG1        0.0316
     28 O           6.1208   -1.2773    0.0008 O.3     1  LIG1       -0.5061
     29 H           7.0719   -1.1471    0.0009 H       1  LIG1        0.2922
     30 C           8.3190    2.2022    0.0043 C.ar    1  LIG1       -0.0418
     31 C           9.7232    2.0950    0.0071 C.ar    1  LIG1       -0.0470
     32 C           7.5705    1.0074    0.0029 C.ar    1  LIG1       -0.0080
     33 C          10.3563    0.8541    0.0079 C.ar    1  LIG1        0.0242
     34 H          10.3199    3.0044    0.0084 H       1  LIG1        0.0628
     35 C           8.2020   -0.2317    0.0037 C.ar    1  LIG1       -0.0115
     36 C           9.5982   -0.3174    0.0061 C.ar    1  LIG1        0.1251
     37 H           7.6028   -1.1386    0.0026 H       1  LIG1        0.0660
     38 C           7.7858    3.3882    0.0034 C.3     1  LIG1       -0.0391
     39 H           6.8426    3.3556    0.5076 H       1  LIG1        0.0278
     40 H           7.6398    3.7128   -1.0057 H       1  LIG1        0.0278
     41 H           8.4363    4.0720    0.5075 H       1  LIG1        0.0278
     42 O          10.1830   -1.4784    0.0069 O.3     1  LIG1       -0.5061
     43 H          11.1353   -1.3575    0.0071 H       1  LIG1        0.2922
     44 C          12.4148    1.9795    0.0125 C.ar    1  LIG1       -0.0424
     45 C          13.8179    1.8587    0.0167 C.ar    1  LIG1       -0.0548
     46 C          11.6548    0.7920    0.0104 C.ar    1  LIG1       -0.0080
     47 C          14.4389    0.6118    0.0181 C.ar    1  LIG1       -0.0199
     48 H          14.4234    2.7623    0.0186 H       1  LIG1        0.0622
     49 C          12.2742   -0.4531    0.0118 C.ar    1  LIG1       -0.0121
     50 C          13.6695   -0.5523    0.0156 C.ar    1  LIG1        0.1175
     51 H          11.6662   -1.3542    0.0102 H       1  LIG1        0.0660
     52 H          15.7368    0.5371    0.0219 H       1  LIG1        0.0654
     53 C          11.8932    3.1706    0.0110 C.3     1  LIG1       -0.0391
     54 H          10.9496    3.1474    0.5151 H       1  LIG1        0.0278
     55 H          11.7504    3.4963   -0.9982 H       1  LIG1        0.0278
     56 H          12.5502    3.8483    0.5150 H       1  LIG1        0.0278
     57 O          14.2430   -1.7190    0.0171 O.3     1  LIG1       -0.5067
     58 H          15.1965   -1.6073    0.0175 H       1  LIG1        0.2921
@<TRIPOS>BOND
     1    26    24    1
     2    12    10    1
     3    40    38    1
     4    55    53    1
     5    15    14    1
     6    14    25    1
     7    23    21    1
     8     7     6   ar
     9     7     4   ar
    10    18    21   ar
    11    18     4    1
    12    18    16   ar
    13    21    22   ar
    14     6     8    1
    15     6     3   ar
    16     4     2   ar
    17    24    16    1
    18    24    27    1
    19    16    17   ar
    20     3     1   ar
    21     3     9    1
    22     2     1   ar
    23     2     5    1
    24     1    10    1
    25    10    13    1
    26    10    11    1
    27    22    28    1
    28    22    19   ar
    29    28    29    1
    30    17    19   ar
    31    17    20    1
    32    19    32    1
    33    37    35    1
    34    32    35   ar
    35    32    30   ar
    36    38    30    1
    37    38    41    1
    38    38    39    1
    39    35    36   ar
    40    30    31   ar
    41    36    42    1
    42    36    33   ar
    43    42    43    1
    44    31    33   ar
    45    31    34    1
    46    33    46    1
    47    51    49    1
    48    46    49   ar
    49    46    44   ar
    50    53    44    1
    51    53    56    1
    52    53    54    1
    53    49    50   ar
    54    44    45   ar
    55    50    57    1
    56    50    47   ar
    57    45    47   ar
    58    45    48    1
    59    57    58    1
    60    47    52    1
