@<TRIPOS>MOLECULE
mol_data/noopt/geoms/mol2/4if4hd(50)12af13la(10).out
 49 51 0 0 0
SMALL
GASTEIGER

@<TRIPOS>ATOM
      1 C           0.0509    0.0309    0.0002 C.ar    1  LIG1       -0.0496
      2 C           1.4592    0.0309    0.0002 C.ar    1  LIG1       -0.0476
      3 C          -0.6045    1.2792    0.0002 C.ar    1  LIG1       -0.0554
      4 C           2.1849    1.2200   -0.0004 C.ar    1  LIG1        0.0256
      5 H           1.9850   -0.9213    0.0004 H       1  LIG1        0.0627
      6 C           0.1195    2.4666   -0.0004 C.ar    1  LIG1       -0.0193
      7 C           1.5181    2.4458   -0.0008 C.ar    1  LIG1        0.1246
      8 H          -0.4090    3.4165   -0.0003 H       1  LIG1        0.0654
      9 H          -1.9035    1.3287    0.0016 H       1  LIG1        0.0621
     10 C          -0.5710   -1.1111    0.0005 C.3     1  LIG1       -0.0397
     11 H           0.0257   -1.8420    0.5050 H       1  LIG1        0.0278
     12 H          -0.7416   -1.4245   -1.0083 H       1  LIG1        0.0278
     13 H          -1.5088   -1.0063    0.5049 H       1  LIG1        0.0278
     14 O           2.1896    3.5590   -0.0012 O.3     1  LIG1       -0.5062
     15 H           1.5802    4.3008   -0.0013 H       1  LIG1        0.2922
     16 C           4.1643    0.3783    0.9363 C.ar    1  LIG1        0.0332
     17 C           5.5720    0.3739    0.8961 C.ar    1  LIG1       -0.0285
     18 C           3.4843    1.1831   -0.0005 C.ar    1  LIG1        0.0075
     19 C           6.2737    1.1360   -0.0352 C.ar    1  LIG1        0.0364
     20 H           6.1165   -0.2399    1.6101 H       1  LIG1        0.0643
     21 C           4.1844    1.9441   -0.9305 C.ar    1  LIG1       -0.0341
     22 C           5.5828    1.9261   -0.9548 C.ar    1  LIG1        0.0631
     23 H           3.6372    2.5567   -1.6425 H       1  LIG1        0.0637
     24 N           3.5655   -0.3539    1.8283 N.pl3   1  LIG1       -0.3575
     25 H           2.5752   -0.2750    1.7140 H       1  LIG1        0.1423
     26 H           3.8392   -1.3089    1.7139 H       1  LIG1        0.1423
     27 N           6.8043    3.2690   -2.5950 N.1     1  LIG1       -0.1908
     28 C           6.2319    2.6397   -1.8263 C.1     1  LIG1        0.0999
     29 C           7.5734    1.1082   -0.0441 C.ar    1  LIG1        0.1377
     30 C           8.5358    0.1199   -0.0509 C.ar    1  LIG1       -0.0073
     31 C           9.8191    0.7907   -0.0596 C.ar    1  LIG1        0.0338
     32 C           9.5556    2.1451   -0.0577 C.ar    1  LIG1        0.1631
     33 O           8.1780    2.3660   -0.0483 O.2     1  LIG1       -0.4526
     34 H           8.3545   -1.1674   -0.0497 H       1  LIG1        0.0662
     35 O          10.9800    0.2055   -0.0677 O.3     2  HOH2       -0.2528
     36 H          11.6735    0.8693   -0.0696 H       0  HOH0        0.2528
     37 C          10.2741    3.2285   -0.0625 C.ar    1  LIG1        0.1249
     38 C          11.6129    3.3997    0.0996 C.ar    1  LIG1        0.1483
     39 C          11.8789    4.8036    0.0062 C.ar    1  LIG1       -0.0018
     40 C          10.6912    5.4285   -0.2106 C.ar    1  LIG1        0.0058
     41 N           9.7060    4.4679   -0.2528 N.ar    1  LIG1       -0.3553
     42 H           8.7382    4.6416   -0.3984 H       1  LIG1        0.1655
     43 H          10.4174    6.6901   -0.3635 H       1  LIG1        0.0808
     44 O          12.4874    2.4595    0.3033 O.3     1  LIG1       -0.4929
     45 C          11.8214    1.1963    0.3780 C.3     1  LIG1        0.0789
     46 H          12.5415    0.4228    0.5455 H       1  LIG1        0.0660
     47 H          11.1190    1.2105    1.1851 H       1  LIG1        0.0660
     48 H          11.3053    1.0102   -0.5406 H       1  LIG1        0.0660
     49 H          13.0405    5.3783    0.1087 H       1  LIG1        0.0669
@<TRIPOS>BOND
     1    27    28    3
     2    28    22    1
     3    23    21    1
     4    12    10    1
     5    22    21   ar
     6    22    19   ar
     7    21    18   ar
     8    48    45    1
     9    42    41    1
    10    43    40    1
    11    41    40   ar
    12    41    37   ar
    13    40    39   ar
    14    36    35    1
    15    37    32    1
    16    37    38   ar
    17    31    32   ar
    18    31    30   ar
    19    32    33   ar
    20    30    34    1
    21    30    29   ar
    22    33    29   ar
    23    29    19    1
    24    19    17   ar
    25    15    14    1
    26    14     7    1
    27     7     6   ar
    28     7     4   ar
    29    18     4    1
    30    18    16   ar
    31     6     8    1
    32     6     3   ar
    33     4     2   ar
    34     1     3   ar
    35     1     2   ar
    36     1    10    1
    37     3     9    1
    38     2     5    1
    39    10    13    1
    40    10    11    1
    41    39    38   ar
    42    39    49    1
    43    38    44    1
    44    44    45    1
    45    45    46    1
    46    45    47    1
    47    17    16   ar
    48    17    20    1
    49    16    24    1
    50    26    24    1
    51    25    24    1
