@<TRIPOS>MOLECULE
mol_data/noopt/geoms/mol2/4if4if4if-4if.out
 58 58 0 0 0
SMALL
GASTEIGER

@<TRIPOS>ATOM
      1 C           0.0509    0.0309    0.0002 C.ar    1  LIG1       -0.0496
      2 C           1.4592    0.0309    0.0002 C.ar    1  LIG1       -0.0476
      3 C          -0.6045    1.2792    0.0002 C.ar    1  LIG1       -0.0554
      4 C           2.1849    1.2200   -0.0004 C.ar    1  LIG1        0.0241
      5 H           1.9850   -0.9213    0.0004 H       1  LIG1        0.0627
      6 C           0.1195    2.4666   -0.0004 C.ar    1  LIG1       -0.0193
      7 C           1.5181    2.4458   -0.0008 C.ar    1  LIG1        0.1246
      8 H          -0.4090    3.4165   -0.0003 H       1  LIG1        0.0654
      9 H          -1.9035    1.3287    0.0016 H       1  LIG1        0.0621
     10 C          -0.5710   -1.1111    0.0005 C.3     1  LIG1       -0.0397
     11 H           0.0257   -1.8420    0.5050 H       1  LIG1        0.0278
     12 H          -0.7416   -1.4245   -1.0083 H       1  LIG1        0.0278
     13 H          -1.5088   -1.0063    0.5049 H       1  LIG1        0.0278
     14 O           2.1896    3.5590   -0.0012 O.3     1  LIG1       -0.5062
     15 H           1.5802    4.3008   -0.0013 H       1  LIG1        0.2922
     16 C           4.1518   -0.0588    0.0002 C.ar    1  LIG1       -0.0420
     17 C           5.5600   -0.0451    0.0016 C.ar    1  LIG1       -0.0499
     18 C           3.4843    1.1831   -0.0005 C.ar    1  LIG1       -0.0109
     19 C           6.2742    1.1510    0.0017 C.ar    1  LIG1       -0.0096
     20 H           6.0950   -0.9922    0.0024 H       1  LIG1        0.0627
     21 C           4.1968    2.3775   -0.0004 C.ar    1  LIG1       -0.0453
     22 C           5.5955    2.3702    0.0006 C.ar    1  LIG1       -0.0090
     23 H           3.6591    3.3222   -0.0009 H       1  LIG1        0.0630
     24 C           3.5410   -1.2067   -0.0001 C.3     1  LIG1       -0.0391
     25 H           4.1447   -1.9321    0.5043 H       1  LIG1        0.0278
     26 H           3.3736   -1.5215   -1.0090 H       1  LIG1        0.0278
     27 H           2.6021   -1.1113    0.5042 H       1  LIG1        0.0278
     28 O           6.2562    3.4899    0.0008 O.3     2  HOH2       -0.4105
     29 H           5.6396    4.2257    0.0009 H       0  HOH0        0.2052
     30 C           8.2991    2.3358    0.0043 C.ar    1  LIG1       -0.0387
     31 C           9.7051    2.2559    0.0071 C.ar    1  LIG1       -0.0497
     32 C           7.5739    1.1267    0.0029 C.ar    1  LIG1       -0.0135
     33 C          10.3621    1.0275    0.0079 C.ar    1  LIG1       -0.0095
     34 H          10.2841    3.1767    0.0084 H       1  LIG1        0.0627
     35 C           8.2293   -0.0999    0.0037 C.ar    1  LIG1       -0.0454
     36 C           9.6269   -0.1585    0.0061 C.ar    1  LIG1       -0.0090
     37 H           7.6478   -1.0183    0.0026 H       1  LIG1        0.0630
     38 C           7.7430    3.5112    0.0034 C.3     1  LIG1       -0.0231
     39 H           6.8006    3.4603    0.5076 H       0  HOH0        0.2052
     40 H           7.5906    3.8330   -1.0057 H       1  LIG1        0.0316
     41 H           8.3801    4.2075    0.5075 H       1  LIG1        0.0316
     42 O          10.2341   -1.3080    0.0069 O.3     3  HOH3       -0.2528
     43 H          11.1839   -1.1686    0.0071 H       4  UNK4        0.0000
     44 C          12.3290   -0.2513    0.0125 C.ar    1  LIG1       -0.0391
     45 C          13.7373   -0.2376    0.0167 C.ar    1  LIG1       -0.0545
     46 C          11.6616    0.9906    0.0104 C.ar    1  LIG1       -0.0107
     47 C          14.4514    0.9585    0.0181 C.ar    1  LIG1       -0.0199
     48 H          14.2723   -1.1847    0.0186 H       1  LIG1        0.0622
     49 C          12.3740    2.1850    0.0118 C.ar    1  LIG1       -0.0122
     50 C          13.7727    2.1777    0.0156 C.ar    1  LIG1        0.1175
     51 H          11.8363    3.1297    0.0102 H       1  LIG1        0.0660
     52 H          15.7512    0.9342    0.0219 H       1  LIG1        0.0654
     53 C          11.7182   -1.3992    0.0110 C.3     1  LIG1       -0.0231
     54 H          12.3217   -2.1250    0.5151 H       1  LIG1        0.0316
     55 H          11.5513   -1.7132   -0.9982 H       1  LIG1        0.0316
     56 H          10.7792   -1.3042    0.5150 H       0  HOH0        0.2528
     57 O          14.4334    3.2974    0.0171 O.3     1  LIG1       -0.5067
     58 H          13.8168    4.0332    0.0175 H       1  LIG1        0.2921
@<TRIPOS>BOND
     1    26    24    1
     2    12    10    1
     3    40    38    1
     4    55    53    1
     5    15    14    1
     6    14     7    1
     7    23    21    1
     8     7     6   ar
     9     7     4   ar
    10    18    21   ar
    11    18     4    1
    12    18    16   ar
    13    21    22   ar
    14     6     8    1
    15     6     3   ar
    16     4     2   ar
    17    24    16    1
    18    24    27    1
    19    24    25    1
    20     3     1   ar
    21     3     9    1
    22     2     1   ar
    23     2     5    1
    24     1    10    1
    25    16    17   ar
    26    10    13    1
    27    10    11    1
    28    22    19   ar
    29    28    29    1
    30    28    39    1
    31    17    19   ar
    32    17    20    1
    33    19    32    1
    34    37    35    1
    35    32    35   ar
    36    32    30   ar
    37    38    30    1
    38    38    41    1
    39    35    36   ar
    40    30    31   ar
    41    36    33   ar
    42    42    56    1
    43    31    33   ar
    44    31    34    1
    45    33    46    1
    46    51    49    1
    47    46    49   ar
    48    46    44   ar
    49    53    44    1
    50    53    54    1
    51    49    50   ar
    52    44    45   ar
    53    50    57    1
    54    50    47   ar
    55    45    47   ar
    56    45    48    1
    57    57    58    1
    58    47    52    1
