@<TRIPOS>MOLECULE
mol_data/noopt/geoms/mol2/4ig4ig-4ig-4ig-.out
 58 61 0 0 0
SMALL
GASTEIGER

@<TRIPOS>ATOM
      1 C           0.0509    0.0309    0.0002 C.ar    1  LIG1       -0.0498
      2 C           1.4592    0.0309    0.0002 C.ar    1  LIG1       -0.0501
      3 C          -0.6045    1.2792    0.0002 C.ar    1  LIG1       -0.0578
      4 C           2.1849    1.2200   -0.0004 C.ar    1  LIG1       -0.0042
      5 H           1.9850   -0.9213    0.0004 H       1  LIG1        0.0627
      6 C           0.1195    2.4666   -0.0004 C.ar    1  LIG1       -0.0477
      7 C           1.5181    2.4458   -0.0008 C.ar    1  LIG1        0.0125
      8 H          -0.4090    3.4165   -0.0003 H       1  LIG1        0.0629
      9 H          -1.9035    1.3287    0.0016 H       1  LIG1        0.0621
     10 C          -0.5710   -1.1111    0.0005 C.3     1  LIG1       -0.0397
     11 H           0.0257   -1.8420    0.5050 H       1  LIG1        0.0278
     12 H          -0.7416   -1.4245   -1.0083 H       1  LIG1        0.0278
     13 H          -1.5088   -1.0063    0.5049 H       1  LIG1        0.0278
     14 S           2.1896    3.5589   -0.0012 S.3     1  LIG1       -0.1420
     15 H           1.3580    4.5712   -0.0013 H       1  LIG1        0.1071
     16 C           4.1518   -0.0586    0.0215 C.ar    1  LIG1       -0.0421
     17 C           5.5600   -0.0449    0.0220 C.ar    1  LIG1       -0.0495
     18 C           3.4843    1.1831   -0.0005 C.ar    1  LIG1       -0.0129
     19 C           6.2742    1.1510    0.0009 C.ar    1  LIG1       -0.0042
     20 H           6.0951   -0.9918    0.0390 H       1  LIG1        0.0627
     21 C           4.1968    2.3773   -0.0216 C.ar    1  LIG1       -0.0400
     22 C           5.5955    2.3701   -0.0212 C.ar    1  LIG1        0.0130
     23 H           3.6591    3.3219   -0.0383 H       1  LIG1        0.0635
     24 C           3.5410   -1.2063    0.0416 C.3     1  LIG1       -0.0391
     25 H           4.1484   -1.9247    0.5515 H       1  LIG1        0.0278
     26 H           3.3662   -1.5350   -0.9616 H       1  LIG1        0.0278
     27 H           2.6059   -1.1038    0.5514 H       1  LIG1        0.0278
     28 S           6.2561    3.4895   -0.0408 S.3     1  LIG1       -0.1420
     29 H           5.4148    4.4936   -0.0474 H       1  LIG1        0.1071
     30 C           8.2534   -0.1084    0.0245 C.ar    1  LIG1       -0.0421
     31 C           9.6614   -0.0811    0.0261 C.ar    1  LIG1       -0.0495
     32 C           7.5739    1.1267    0.0018 C.ar    1  LIG1       -0.0129
     33 C          10.3639    1.1217    0.0055 C.ar    1  LIG1       -0.0042
     34 H          10.2056   -1.0227    0.0436 H       1  LIG1        0.0627
     35 C           8.2747    2.3278   -0.0187 C.ar    1  LIG1       -0.0400
     36 C           9.6734    2.3341   -0.0171 C.ar    1  LIG1        0.0130
     37 H           7.7279    3.2671   -0.0358 H       1  LIG1        0.0635
     38 C           7.6538   -1.2621    0.0440 C.3     1  LIG1       -0.0391
     39 H           8.2680   -1.9747    0.5538 H       1  LIG1        0.0278
     40 H           7.4823   -1.5920   -0.9593 H       1  LIG1        0.0278
     41 H           6.7176   -1.1688    0.5537 H       1  LIG1        0.0278
     42 S          10.3232    3.4599   -0.0362 S.3     1  LIG1       -0.1420
     43 H           9.4722    4.4559   -0.0426 H       1  LIG1        0.1071
     44 C          12.3552   -0.1184    0.0308 C.ar    1  LIG1       -0.0426
     45 C          13.7629   -0.0774    0.0336 C.ar    1  LIG1       -0.0572
     46 C          11.6638    1.1101    0.0076 C.ar    1  LIG1       -0.0129
     47 C          14.4537    1.1322    0.0136 C.ar    1  LIG1       -0.0483
     48 H          14.3162   -1.0137    0.0516 H       1  LIG1        0.0621
     49 C          12.3529    2.3179   -0.0124 C.ar    1  LIG1       -0.0406
     50 C          13.7515    2.3378   -0.0096 C.ar    1  LIG1        0.0053
     51 H          11.7970    3.2518   -0.0300 H       1  LIG1        0.0635
     52 H          15.7537    1.1332    0.0167 H       1  LIG1        0.0629
     53 C          11.7668   -1.2778    0.0499 C.3     1  LIG1       -0.0391
     54 H          12.3878   -1.9846    0.5595 H       1  LIG1        0.0278
     55 H          11.5988   -1.6091   -0.9536 H       1  LIG1        0.0278
     56 H          10.8297   -1.1938    0.5594 H       1  LIG1        0.0278
     57 S          14.3903    3.4699   -0.0282 S.3     1  LIG1       -0.1426
     58 H          13.5297    4.4575   -0.0345 H       1  LIG1        0.1071
@<TRIPOS>BOND
     1    12    10    1
     2    26    24    1
     3    40    38    1
     4    55    53    1
     5    29    28    1
     6    43    42    1
     7    28    22    1
     8    23    21    1
     9    42    36    1
    10    37    35    1
    11    58    57    1
    12    51    49    1
    13    57    50    1
    14    21    22   ar
    15    21    18   ar
    16    22    19   ar
    17    35    36   ar
    18    35    32   ar
    19    36    33   ar
    20    49    50   ar
    21    49    46   ar
    22    50    47   ar
    23    15    14    1
    24    14     7    1
    25     7     6   ar
    26     7     4   ar
    27    18     4    1
    28    18    16   ar
    29     6     8    1
    30     6     3   ar
    31     4     2   ar
    32     1     2   ar
    33     1     3   ar
    34     1    10    1
    35     2     5    1
    36     3     9    1
    37    10    13    1
    38    10    11    1
    39    19    32    1
    40    19    17   ar
    41    32    30   ar
    42    33    46    1
    43    33    31   ar
    44    46    44   ar
    45    47    52    1
    46    47    45   ar
    47    16    17   ar
    48    16    24    1
    49    17    20    1
    50    30    31   ar
    51    30    38    1
    52    31    34    1
    53    44    45   ar
    54    44    53    1
    55    45    48    1
    56    24    27    1
    57    24    25    1
    58    38    41    1
    59    38    39    1
    60    53    56    1
    61    53    54    1
