@<TRIPOS>MOLECULE
mol_data/noopt/geoms/mol2/4ig4ig4ig.out
 44 46 0 0 0
SMALL
GASTEIGER

@<TRIPOS>ATOM
      1 C           0.0509    0.0309    0.0002 C.ar    1  LIG1       -0.0498
      2 C           1.4592    0.0309    0.0002 C.ar    1  LIG1       -0.0501
      3 C          -0.6045    1.2792    0.0002 C.ar    1  LIG1       -0.0578
      4 C           2.1849    1.2200   -0.0004 C.ar    1  LIG1       -0.0042
      5 H           1.9850   -0.9213    0.0004 H       1  LIG1        0.0627
      6 C           0.1195    2.4666   -0.0004 C.ar    1  LIG1       -0.0477
      7 C           1.5181    2.4458   -0.0008 C.ar    1  LIG1        0.0125
      8 H          -0.4090    3.4165   -0.0003 H       1  LIG1        0.0629
      9 H          -1.9035    1.3287    0.0016 H       1  LIG1        0.0621
     10 C          -0.5710   -1.1111    0.0005 C.3     1  LIG1       -0.0397
     11 H           0.0257   -1.8420    0.5050 H       1  LIG1        0.0278
     12 H          -0.7416   -1.4245   -1.0083 H       1  LIG1        0.0278
     13 H          -1.5088   -1.0063    0.5049 H       1  LIG1        0.0278
     14 S           2.1896    3.5589   -0.0012 S.3     1  LIG1       -0.1420
     15 H           1.3580    4.5712   -0.0013 H       1  LIG1        0.1071
     16 C           4.1518   -0.0588    0.0002 C.ar    1  LIG1       -0.0421
     17 C           5.5600   -0.0451    0.0016 C.ar    1  LIG1       -0.0495
     18 C           3.4843    1.1831   -0.0005 C.ar    1  LIG1       -0.0129
     19 C           6.2742    1.1510    0.0017 C.ar    1  LIG1       -0.0042
     20 H           6.0950   -0.9922    0.0024 H       1  LIG1        0.0627
     21 C           4.1968    2.3775   -0.0004 C.ar    1  LIG1       -0.0400
     22 C           5.5955    2.3702    0.0006 C.ar    1  LIG1        0.0130
     23 H           3.6591    3.3222   -0.0009 H       1  LIG1        0.0635
     24 C           3.5410   -1.2067   -0.0001 C.3     1  LIG1       -0.0391
     25 H           4.1447   -1.9321    0.5043 H       1  LIG1        0.0278
     26 H           3.3736   -1.5215   -1.0090 H       1  LIG1        0.0278
     27 H           2.6021   -1.1113    0.5042 H       1  LIG1        0.0278
     28 S           6.2561    3.4898    0.0008 S.3     1  LIG1       -0.1420
     29 H           5.4148    4.4939    0.0009 H       1  LIG1        0.1071
     30 C           8.2534   -0.1087    0.0043 C.ar    1  LIG1       -0.0426
     31 C           9.6614   -0.0814    0.0071 C.ar    1  LIG1       -0.0572
     32 C           7.5739    1.1267    0.0029 C.ar    1  LIG1       -0.0129
     33 C          10.3639    1.1216    0.0079 C.ar    1  LIG1       -0.0483
     34 H          10.2056   -1.0232    0.0084 H       1  LIG1        0.0621
     35 C           8.2747    2.3279    0.0036 C.ar    1  LIG1       -0.0406
     36 C           9.6734    2.3342    0.0060 C.ar    1  LIG1        0.0053
     37 H           7.7279    3.2674    0.0026 H       1  LIG1        0.0635
     38 H          11.6639    1.1099    0.0104 H       1  LIG1        0.0629
     39 C           7.6537   -1.2625    0.0034 C.3     1  LIG1       -0.0391
     40 H           8.2643   -1.9821    0.5076 H       1  LIG1        0.0278
     41 H           7.4896   -1.5784   -1.0056 H       1  LIG1        0.0278
     42 H           6.7139   -1.1763    0.5076 H       1  LIG1        0.0278
     43 S          10.3232    3.4602    0.0069 S.3     1  LIG1       -0.1426
     44 H           9.4722    4.4561    0.0072 H       1  LIG1        0.1071
@<TRIPOS>BOND
     1    26    24    1
     2    12    10    1
     3    41    39    1
     4    15    14    1
     5    14     7    1
     6    23    21    1
     7     7     4   ar
     8     7     6   ar
     9    18    21   ar
    10    18     4    1
    11    18    16   ar
    12    21    22   ar
    13     4     2   ar
    14     6     8    1
    15     6     3   ar
    16    24    16    1
    17    24    27    1
    18    24    25    1
    19     1     2   ar
    20     1     3   ar
    21     1    10    1
    22     2     5    1
    23     3     9    1
    24    16    17   ar
    25    10    13    1
    26    10    11    1
    27    22    28    1
    28    22    19   ar
    29    28    29    1
    30    17    19   ar
    31    17    20    1
    32    19    32    1
    33    37    35    1
    34    32    35   ar
    35    32    30   ar
    36    39    30    1
    37    39    42    1
    38    39    40    1
    39    35    36   ar
    40    30    31   ar
    41    36    43    1
    42    36    33   ar
    43    43    44    1
    44    31    33   ar
    45    31    34    1
    46    33    38    1
