@<TRIPOS>MOLECULE
mol_data/noopt/geoms/mol2/4ig4ig4ig-.out
 44 46 0 0 0
SMALL
GASTEIGER

@<TRIPOS>ATOM
      1 C           0.0509    0.0309    0.0002 C.ar    1  LIG1       -0.0498
      2 C           1.4592    0.0309    0.0002 C.ar    1  LIG1       -0.0501
      3 C          -0.6045    1.2792    0.0002 C.ar    1  LIG1       -0.0578
      4 C           2.1849    1.2200   -0.0004 C.ar    1  LIG1       -0.0042
      5 H           1.9850   -0.9213    0.0004 H       1  LIG1        0.0627
      6 C           0.1195    2.4666   -0.0004 C.ar    1  LIG1       -0.0477
      7 C           1.5181    2.4458   -0.0008 C.ar    1  LIG1        0.0125
      8 H          -0.4090    3.4165   -0.0003 H       1  LIG1        0.0629
      9 H          -1.9035    1.3287    0.0016 H       1  LIG1        0.0621
     10 C          -0.5710   -1.1111    0.0005 C.3     1  LIG1       -0.0397
     11 H           0.0257   -1.8420    0.5050 H       1  LIG1        0.0278
     12 H          -0.7416   -1.4245   -1.0083 H       1  LIG1        0.0278
     13 H          -1.5088   -1.0063    0.5049 H       1  LIG1        0.0278
     14 S           2.1896    3.5589   -0.0012 S.3     1  LIG1       -0.1420
     15 H           1.3580    4.5712   -0.0013 H       1  LIG1        0.1071
     16 C           4.1518   -0.0588    0.0002 C.ar    1  LIG1       -0.0421
     17 C           5.5600   -0.0451    0.0016 C.ar    1  LIG1       -0.0495
     18 C           3.4843    1.1831   -0.0005 C.ar    1  LIG1       -0.0129
     19 C           6.2742    1.1510    0.0017 C.ar    1  LIG1       -0.0042
     20 H           6.0950   -0.9922    0.0024 H       1  LIG1        0.0627
     21 C           4.1968    2.3775   -0.0004 C.ar    1  LIG1       -0.0400
     22 C           5.5955    2.3702    0.0006 C.ar    1  LIG1        0.0130
     23 H           3.6591    3.3222   -0.0009 H       1  LIG1        0.0635
     24 C           3.5410   -1.2067   -0.0001 C.3     1  LIG1       -0.0391
     25 H           4.1447   -1.9321    0.5043 H       1  LIG1        0.0278
     26 H           3.3736   -1.5215   -1.0090 H       1  LIG1        0.0278
     27 H           2.6021   -1.1113    0.5042 H       1  LIG1        0.0278
     28 S           6.2561    3.4898    0.0008 S.3     1  LIG1       -0.1420
     29 H           5.4148    4.4939    0.0009 H       1  LIG1        0.1071
     30 C           8.2534   -0.1085    0.0256 C.ar    1  LIG1       -0.0426
     31 C           9.6614   -0.0811    0.0275 C.ar    1  LIG1       -0.0572
     32 C           7.5739    1.1267    0.0029 C.ar    1  LIG1       -0.0129
     33 C          10.3639    1.1216    0.0070 C.ar    1  LIG1       -0.0483
     34 H          10.2055   -1.0228    0.0451 H       1  LIG1        0.0621
     35 C           8.2747    2.3277   -0.0175 C.ar    1  LIG1       -0.0406
     36 C           9.6735    2.3341   -0.0157 C.ar    1  LIG1        0.0053
     37 H           7.7279    3.2670   -0.0348 H       1  LIG1        0.0635
     38 H          11.6639    1.1100    0.0093 H       1  LIG1        0.0629
     39 C           7.6537   -1.2621    0.0451 C.3     1  LIG1       -0.0391
     40 H           8.2679   -1.9748    0.5548 H       1  LIG1        0.0278
     41 H           7.4823   -1.5920   -0.9583 H       1  LIG1        0.0278
     42 H           6.7175   -1.1689    0.5547 H       1  LIG1        0.0278
     43 S          10.3232    3.4598   -0.0347 S.3     1  LIG1       -0.1426
     44 H           9.4722    4.4558   -0.0411 H       1  LIG1        0.1071
@<TRIPOS>BOND
     1    26    24    1
     2    12    10    1
     3    41    39    1
     4    44    43    1
     5    37    35    1
     6    43    36    1
     7    35    36   ar
     8    35    32   ar
     9    36    33   ar
    10    15    14    1
    11    14     7    1
    12    23    21    1
    13     7     4   ar
    14     7     6   ar
    15    18    21   ar
    16    18     4    1
    17    18    16   ar
    18    21    22   ar
    19     4     2   ar
    20     6     8    1
    21     6     3   ar
    22    24    16    1
    23    24    27    1
    24    24    25    1
    25     2     1   ar
    26     2     5    1
    27     3     1   ar
    28     3     9    1
    29     1    10    1
    30    16    17   ar
    31    10    13    1
    32    10    11    1
    33    22    28    1
    34    22    19   ar
    35    28    29    1
    36    17    19   ar
    37    17    20    1
    38    19    32    1
    39    32    30   ar
    40    33    38    1
    41    33    31   ar
    42    30    31   ar
    43    30    39    1
    44    31    34    1
    45    39    42    1
    46    39    40    1
