@<TRIPOS>MOLECULE
mol_data/noopt/geoms/mol2/4ig4ig-.out
 30 31 0 0 0
SMALL
GASTEIGER

@<TRIPOS>ATOM
      1 C           0.0509    0.0309    0.0002 C.ar    1  LIG1       -0.0498
      2 C           1.4592    0.0309    0.0002 C.ar    1  LIG1       -0.0501
      3 C          -0.6045    1.2792    0.0002 C.ar    1  LIG1       -0.0578
      4 C           2.1849    1.2200   -0.0004 C.ar    1  LIG1       -0.0042
      5 H           1.9850   -0.9213    0.0004 H       1  LIG1        0.0627
      6 C           0.1195    2.4666   -0.0004 C.ar    1  LIG1       -0.0477
      7 C           1.5181    2.4458   -0.0008 C.ar    1  LIG1        0.0125
      8 H          -0.4090    3.4165   -0.0003 H       1  LIG1        0.0629
      9 H          -1.9035    1.3287    0.0016 H       1  LIG1        0.0621
     10 C          -0.5710   -1.1111    0.0005 C.3     1  LIG1       -0.0397
     11 H           0.0257   -1.8420    0.5050 H       1  LIG1        0.0278
     12 H          -0.7416   -1.4245   -1.0083 H       1  LIG1        0.0278
     13 H          -1.5088   -1.0063    0.5049 H       1  LIG1        0.0278
     14 S           2.1896    3.5589   -0.0012 S.3     1  LIG1       -0.1420
     15 H           1.3580    4.5712   -0.0013 H       1  LIG1        0.1071
     16 C           4.1518   -0.0586    0.0215 C.ar    1  LIG1       -0.0426
     17 C           5.5600   -0.0449    0.0220 C.ar    1  LIG1       -0.0572
     18 C           3.4843    1.1831   -0.0005 C.ar    1  LIG1       -0.0129
     19 C           6.2742    1.1510    0.0009 C.ar    1  LIG1       -0.0483
     20 H           6.0951   -0.9918    0.0390 H       1  LIG1        0.0621
     21 C           4.1968    2.3773   -0.0216 C.ar    1  LIG1       -0.0406
     22 C           5.5955    2.3701   -0.0212 C.ar    1  LIG1        0.0053
     23 H           3.6591    3.3219   -0.0383 H       1  LIG1        0.0635
     24 H           7.5740    1.1267    0.0018 H       1  LIG1        0.0629
     25 C           3.5410   -1.2063    0.0416 C.3     1  LIG1       -0.0391
     26 H           4.1484   -1.9247    0.5515 H       1  LIG1        0.0278
     27 H           3.3662   -1.5350   -0.9616 H       1  LIG1        0.0278
     28 H           2.6059   -1.1038    0.5514 H       1  LIG1        0.0278
     29 S           6.2561    3.4895   -0.0408 S.3     1  LIG1       -0.1426
     30 H           5.4148    4.4936   -0.0474 H       1  LIG1        0.1071
@<TRIPOS>BOND
     1    12    10    1
     2    27    25    1
     3    30    29    1
     4    29    22    1
     5    23    21    1
     6    21    22   ar
     7    21    18   ar
     8    22    19   ar
     9    15    14    1
    10    14     7    1
    11     7     4   ar
    12     7     6   ar
    13    18     4    1
    14    18    16   ar
    15     4     2   ar
    16     6     8    1
    17     6     3   ar
    18     1     3   ar
    19     1     2   ar
    20     1    10    1
    21     3     9    1
    22     2     5    1
    23    10    13    1
    24    10    11    1
    25    19    24    1
    26    19    17   ar
    27    16    17   ar
    28    16    25    1
    29    17    20    1
    30    25    28    1
    31    25    26    1
