@<TRIPOS>MOLECULE
mol_data/noopt/geoms/mol2/4ig4ig4ig4ig.out
 58 61 0 0 0
SMALL
GASTEIGER

@<TRIPOS>ATOM
      1 C           0.0509    0.0309    0.0002 C.ar    1  LIG1       -0.0498
      2 C           1.4592    0.0309    0.0002 C.ar    1  LIG1       -0.0501
      3 C          -0.6045    1.2792    0.0002 C.ar    1  LIG1       -0.0578
      4 C           2.1849    1.2200   -0.0004 C.ar    1  LIG1       -0.0042
      5 H           1.9850   -0.9213    0.0004 H       1  LIG1        0.0627
      6 C           0.1195    2.4666   -0.0004 C.ar    1  LIG1       -0.0477
      7 C           1.5181    2.4458   -0.0008 C.ar    1  LIG1        0.0125
      8 H          -0.4090    3.4165   -0.0003 H       1  LIG1        0.0629
      9 H          -1.9035    1.3287    0.0016 H       1  LIG1        0.0621
     10 C          -0.5710   -1.1111    0.0005 C.3     1  LIG1       -0.0397
     11 H           0.0257   -1.8420    0.5050 H       1  LIG1        0.0278
     12 H          -0.7416   -1.4245   -1.0083 H       1  LIG1        0.0278
     13 H          -1.5088   -1.0063    0.5049 H       1  LIG1        0.0278
     14 S           2.1896    3.5589   -0.0012 S.3     1  LIG1       -0.1420
     15 H           1.3580    4.5712   -0.0013 H       1  LIG1        0.1071
     16 C           4.1518   -0.0588    0.0002 C.ar    1  LIG1       -0.0421
     17 C           5.5600   -0.0451    0.0016 C.ar    1  LIG1       -0.0495
     18 C           3.4843    1.1831   -0.0005 C.ar    1  LIG1       -0.0129
     19 C           6.2742    1.1510    0.0017 C.ar    1  LIG1       -0.0042
     20 H           6.0950   -0.9922    0.0024 H       1  LIG1        0.0627
     21 C           4.1968    2.3775   -0.0004 C.ar    1  LIG1       -0.0400
     22 C           5.5955    2.3702    0.0006 C.ar    1  LIG1        0.0130
     23 H           3.6591    3.3222   -0.0009 H       1  LIG1        0.0635
     24 C           3.5410   -1.2067   -0.0001 C.3     1  LIG1       -0.0391
     25 H           4.1447   -1.9321    0.5043 H       1  LIG1        0.0278
     26 H           3.3736   -1.5215   -1.0090 H       1  LIG1        0.0278
     27 H           2.6021   -1.1113    0.5042 H       1  LIG1        0.0278
     28 S           6.2561    3.4898    0.0008 S.3     1  LIG1       -0.1420
     29 H           5.4148    4.4939    0.0009 H       1  LIG1        0.1071
     30 C           8.2534   -0.1087    0.0043 C.ar    1  LIG1       -0.0421
     31 C           9.6614   -0.0814    0.0071 C.ar    1  LIG1       -0.0495
     32 C           7.5739    1.1267    0.0029 C.ar    1  LIG1       -0.0129
     33 C          10.3639    1.1216    0.0079 C.ar    1  LIG1       -0.0042
     34 H          10.2056   -1.0232    0.0084 H       1  LIG1        0.0627
     35 C           8.2747    2.3279    0.0036 C.ar    1  LIG1       -0.0400
     36 C           9.6734    2.3342    0.0060 C.ar    1  LIG1        0.0130
     37 H           7.7279    3.2674    0.0026 H       1  LIG1        0.0635
     38 C           7.6537   -1.2625    0.0034 C.3     1  LIG1       -0.0391
     39 H           8.2643   -1.9821    0.5076 H       1  LIG1        0.0278
     40 H           7.4896   -1.5784   -1.0056 H       1  LIG1        0.0278
     41 H           6.7139   -1.1763    0.5076 H       1  LIG1        0.0278
     42 S          10.3232    3.4602    0.0069 S.3     1  LIG1       -0.1420
     43 H           9.4722    4.4561    0.0072 H       1  LIG1        0.1071
     44 C          12.3552   -0.1188    0.0125 C.ar    1  LIG1       -0.0426
     45 C          13.7629   -0.0778    0.0167 C.ar    1  LIG1       -0.0572
     46 C          11.6638    1.1099    0.0104 C.ar    1  LIG1       -0.0129
     47 C          14.4537    1.1319    0.0181 C.ar    1  LIG1       -0.0483
     48 H          14.3162   -1.0143    0.0186 H       1  LIG1        0.0621
     49 C          12.3529    2.3179    0.0118 C.ar    1  LIG1       -0.0406
     50 C          13.7515    2.3378    0.0156 C.ar    1  LIG1        0.0053
     51 H          11.7970    3.2520    0.0102 H       1  LIG1        0.0635
     52 H          15.7537    1.1328    0.0219 H       1  LIG1        0.0629
     53 C          11.7668   -1.2784    0.0110 C.3     1  LIG1       -0.0391
     54 H          12.3842   -1.9923    0.5151 H       1  LIG1        0.0278
     55 H          11.6060   -1.5955   -0.9982 H       1  LIG1        0.0278
     56 H          10.8261   -1.2015    0.5150 H       1  LIG1        0.0278
     57 S          14.3903    3.4700    0.0171 S.3     1  LIG1       -0.1426
     58 H          13.5297    4.4576    0.0176 H       1  LIG1        0.1071
@<TRIPOS>BOND
     1    26    24    1
     2    12    10    1
     3    40    38    1
     4    55    53    1
     5    15    14    1
     6    14     7    1
     7    23    21    1
     8     7     6   ar
     9     7     4   ar
    10    18    21   ar
    11    18     4    1
    12    18    16   ar
    13    21    22   ar
    14     6     8    1
    15     6     3   ar
    16     4     2   ar
    17    24    16    1
    18    24    27    1
    19    24    25    1
    20     3     1   ar
    21     3     9    1
    22     2     1   ar
    23     2     5    1
    24     1    10    1
    25    16    17   ar
    26    10    13    1
    27    10    11    1
    28    22    28    1
    29    22    19   ar
    30    28    29    1
    31    17    19   ar
    32    17    20    1
    33    19    32    1
    34    37    35    1
    35    32    35   ar
    36    32    30   ar
    37    38    30    1
    38    38    41    1
    39    38    39    1
    40    35    36   ar
    41    30    31   ar
    42    36    42    1
    43    36    33   ar
    44    42    43    1
    45    31    33   ar
    46    31    34    1
    47    33    46    1
    48    51    49    1
    49    46    49   ar
    50    46    44   ar
    51    53    44    1
    52    53    56    1
    53    53    54    1
    54    49    50   ar
    55    44    45   ar
    56    50    57    1
    57    50    47   ar
    58    45    47   ar
    59    45    48    1
    60    57    58    1
    61    47    52    1
