@<TRIPOS>MOLECULE
mol_data/noopt/geoms/mol2/4ig4ig4ig-4ig.out
 58 61 0 0 0
SMALL
GASTEIGER

@<TRIPOS>ATOM
      1 C           0.0509    0.0309    0.0002 C.ar    1  LIG1       -0.0498
      2 C           1.4592    0.0309    0.0002 C.ar    1  LIG1       -0.0501
      3 C          -0.6045    1.2792    0.0002 C.ar    1  LIG1       -0.0578
      4 C           2.1849    1.2200   -0.0004 C.ar    1  LIG1       -0.0042
      5 H           1.9850   -0.9213    0.0004 H       1  LIG1        0.0627
      6 C           0.1195    2.4666   -0.0004 C.ar    1  LIG1       -0.0477
      7 C           1.5181    2.4458   -0.0008 C.ar    1  LIG1        0.0125
      8 H          -0.4090    3.4165   -0.0003 H       1  LIG1        0.0629
      9 H          -1.9035    1.3287    0.0016 H       1  LIG1        0.0621
     10 C          -0.5710   -1.1111    0.0005 C.3     1  LIG1       -0.0397
     11 H           0.0257   -1.8420    0.5050 H       1  LIG1        0.0278
     12 H          -0.7416   -1.4245   -1.0083 H       1  LIG1        0.0278
     13 H          -1.5088   -1.0063    0.5049 H       1  LIG1        0.0278
     14 S           2.1896    3.5589   -0.0012 S.3     1  LIG1       -0.1420
     15 H           1.3580    4.5712   -0.0013 H       1  LIG1        0.1071
     16 C           4.1518   -0.0588    0.0002 C.ar    1  LIG1       -0.0421
     17 C           5.5600   -0.0451    0.0016 C.ar    1  LIG1       -0.0495
     18 C           3.4843    1.1831   -0.0005 C.ar    1  LIG1       -0.0129
     19 C           6.2742    1.1510    0.0017 C.ar    1  LIG1       -0.0042
     20 H           6.0950   -0.9922    0.0024 H       1  LIG1        0.0627
     21 C           4.1968    2.3775   -0.0004 C.ar    1  LIG1       -0.0400
     22 C           5.5955    2.3702    0.0006 C.ar    1  LIG1        0.0130
     23 H           3.6591    3.3222   -0.0009 H       1  LIG1        0.0635
     24 C           3.5410   -1.2067   -0.0001 C.3     1  LIG1       -0.0391
     25 H           4.1447   -1.9321    0.5043 H       1  LIG1        0.0278
     26 H           3.3736   -1.5215   -1.0090 H       1  LIG1        0.0278
     27 H           2.6021   -1.1113    0.5042 H       1  LIG1        0.0278
     28 S           6.2561    3.4898    0.0008 S.3     1  LIG1       -0.1420
     29 H           5.4148    4.4939    0.0009 H       1  LIG1        0.1071
     30 C           8.2534   -0.1085    0.0256 C.ar    1  LIG1       -0.0421
     31 C           9.6614   -0.0811    0.0275 C.ar    1  LIG1       -0.0495
     32 C           7.5739    1.1267    0.0029 C.ar    1  LIG1       -0.0129
     33 C          10.3639    1.1216    0.0070 C.ar    1  LIG1       -0.0042
     34 H          10.2055   -1.0228    0.0451 H       1  LIG1        0.0627
     35 C           8.2747    2.3277   -0.0175 C.ar    1  LIG1       -0.0400
     36 C           9.6735    2.3341   -0.0157 C.ar    1  LIG1        0.0130
     37 H           7.7279    3.2670   -0.0348 H       1  LIG1        0.0635
     38 C           7.6537   -1.2621    0.0451 C.3     1  LIG1       -0.0391
     39 H           8.2679   -1.9748    0.5548 H       1  LIG1        0.0278
     40 H           7.4823   -1.5920   -0.9583 H       1  LIG1        0.0278
     41 H           6.7175   -1.1689    0.5547 H       1  LIG1        0.0278
     42 S          10.3232    3.4598   -0.0347 S.3     1  LIG1       -0.1420
     43 H           9.4722    4.4558   -0.0411 H       1  LIG1        0.1071
     44 C          12.3552   -0.1187    0.0113 C.ar    1  LIG1       -0.0426
     45 C          13.7629   -0.0777    0.0153 C.ar    1  LIG1       -0.0572
     46 C          11.6638    1.1100    0.0093 C.ar    1  LIG1       -0.0129
     47 C          14.4537    1.1320    0.0166 C.ar    1  LIG1       -0.0483
     48 H          14.3162   -1.0142    0.0171 H       1  LIG1        0.0621
     49 C          12.3529    2.3179    0.0106 C.ar    1  LIG1       -0.0406
     50 C          13.7515    2.3379    0.0142 C.ar    1  LIG1        0.0053
     51 H          11.7970    3.2520    0.0092 H       1  LIG1        0.0635
     52 H          15.7537    1.1329    0.0202 H       1  LIG1        0.0629
     53 C          11.7669   -1.2783    0.0100 C.3     1  LIG1       -0.0391
     54 H          12.3843   -1.9922    0.5140 H       1  LIG1        0.0278
     55 H          11.6060   -1.5955   -0.9992 H       1  LIG1        0.0278
     56 H          10.8261   -1.2015    0.5140 H       1  LIG1        0.0278
     57 S          14.3903    3.4701    0.0156 S.3     1  LIG1       -0.1426
     58 H          13.5296    4.4577    0.0160 H       1  LIG1        0.1071
@<TRIPOS>BOND
     1    26    24    1
     2    12    10    1
     3    55    53    1
     4    40    38    1
     5    43    42    1
     6    37    35    1
     7    42    36    1
     8    35    36   ar
     9    35    32   ar
    10    36    33   ar
    11    15    14    1
    12    14     7    1
    13    23    21    1
    14     7     6   ar
    15     7     4   ar
    16    18    21   ar
    17    18     4    1
    18    18    16   ar
    19    21    22   ar
    20     6     8    1
    21     6     3   ar
    22     4     2   ar
    23    24    16    1
    24    24    27    1
    25    24    25    1
    26     1     3   ar
    27     1     2   ar
    28     1    10    1
    29     3     9    1
    30     2     5    1
    31    16    17   ar
    32    10    13    1
    33    10    11    1
    34    22    28    1
    35    22    19   ar
    36    28    29    1
    37    17    19   ar
    38    17    20    1
    39    19    32    1
    40    32    30   ar
    41    33    46    1
    42    33    31   ar
    43    51    49    1
    44    46    49   ar
    45    46    44   ar
    46    53    44    1
    47    53    56    1
    48    53    54    1
    49    49    50   ar
    50    44    45   ar
    51    50    57    1
    52    50    47   ar
    53    45    47   ar
    54    45    48    1
    55    57    58    1
    56    47    52    1
    57    30    31   ar
    58    30    38    1
    59    31    34    1
    60    38    41    1
    61    38    39    1
