@<TRIPOS>MOLECULE
mol_data/noopt/geoms/mol2/4ig4ig-4ig.out
 44 46 0 0 0
SMALL
GASTEIGER

@<TRIPOS>ATOM
      1 C           0.0509    0.0309    0.0002 C.ar    1  LIG1       -0.0498
      2 C           1.4592    0.0309    0.0002 C.ar    1  LIG1       -0.0501
      3 C          -0.6045    1.2792    0.0002 C.ar    1  LIG1       -0.0578
      4 C           2.1849    1.2200   -0.0004 C.ar    1  LIG1       -0.0042
      5 H           1.9850   -0.9213    0.0004 H       1  LIG1        0.0627
      6 C           0.1195    2.4666   -0.0004 C.ar    1  LIG1       -0.0477
      7 C           1.5181    2.4458   -0.0008 C.ar    1  LIG1        0.0125
      8 H          -0.4090    3.4165   -0.0003 H       1  LIG1        0.0629
      9 H          -1.9035    1.3287    0.0016 H       1  LIG1        0.0621
     10 C          -0.5710   -1.1111    0.0005 C.3     1  LIG1       -0.0397
     11 H           0.0257   -1.8420    0.5050 H       1  LIG1        0.0278
     12 H          -0.7416   -1.4245   -1.0083 H       1  LIG1        0.0278
     13 H          -1.5088   -1.0063    0.5049 H       1  LIG1        0.0278
     14 S           2.1896    3.5589   -0.0012 S.3     1  LIG1       -0.1420
     15 H           1.3580    4.5712   -0.0013 H       1  LIG1        0.1071
     16 C           4.1518   -0.0586    0.0215 C.ar    1  LIG1       -0.0421
     17 C           5.5600   -0.0449    0.0220 C.ar    1  LIG1       -0.0495
     18 C           3.4843    1.1831   -0.0005 C.ar    1  LIG1       -0.0129
     19 C           6.2742    1.1510    0.0009 C.ar    1  LIG1       -0.0042
     20 H           6.0951   -0.9918    0.0390 H       1  LIG1        0.0627
     21 C           4.1968    2.3773   -0.0216 C.ar    1  LIG1       -0.0400
     22 C           5.5955    2.3701   -0.0212 C.ar    1  LIG1        0.0130
     23 H           3.6591    3.3219   -0.0383 H       1  LIG1        0.0635
     24 C           3.5410   -1.2063    0.0416 C.3     1  LIG1       -0.0391
     25 H           4.1484   -1.9247    0.5515 H       1  LIG1        0.0278
     26 H           3.3662   -1.5350   -0.9616 H       1  LIG1        0.0278
     27 H           2.6059   -1.1038    0.5514 H       1  LIG1        0.0278
     28 S           6.2561    3.4895   -0.0408 S.3     1  LIG1       -0.1420
     29 H           5.4148    4.4936   -0.0474 H       1  LIG1        0.1071
     30 C           8.2534   -0.1086    0.0031 C.ar    1  LIG1       -0.0426
     31 C           9.6614   -0.0813    0.0057 C.ar    1  LIG1       -0.0572
     32 C           7.5739    1.1267    0.0018 C.ar    1  LIG1       -0.0129
     33 C          10.3639    1.1217    0.0064 C.ar    1  LIG1       -0.0483
     34 H          10.2056   -1.0231    0.0069 H       1  LIG1        0.0621
     35 C           8.2747    2.3280    0.0025 C.ar    1  LIG1       -0.0406
     36 C           9.6734    2.3343    0.0046 C.ar    1  LIG1        0.0053
     37 H           7.7278    3.2674    0.0016 H       1  LIG1        0.0635
     38 H          11.6639    1.1100    0.0086 H       1  LIG1        0.0629
     39 C           7.6538   -1.2624    0.0024 C.3     1  LIG1       -0.0391
     40 H           8.2644   -1.9820    0.5066 H       1  LIG1        0.0278
     41 H           7.4896   -1.5784   -1.0067 H       1  LIG1        0.0278
     42 H           6.7139   -1.1763    0.5065 H       1  LIG1        0.0278
     43 S          10.3231    3.4603    0.0054 S.3     1  LIG1       -0.1426
     44 H           9.4721    4.4562    0.0057 H       1  LIG1        0.1071
@<TRIPOS>BOND
     1    12    10    1
     2    41    39    1
     3    26    24    1
     4    29    28    1
     5    28    22    1
     6    23    21    1
     7    21    22   ar
     8    21    18   ar
     9    22    19   ar
    10    15    14    1
    11    14     7    1
    12     7     4   ar
    13     7     6   ar
    14    18     4    1
    15    18    16   ar
    16     4     2   ar
    17     6     8    1
    18     6     3   ar
    19     1     2   ar
    20     1     3   ar
    21     1    10    1
    22     2     5    1
    23     3     9    1
    24    10    13    1
    25    10    11    1
    26    19    32    1
    27    19    17   ar
    28    37    35    1
    29    32    35   ar
    30    32    30   ar
    31    39    30    1
    32    39    42    1
    33    39    40    1
    34    35    36   ar
    35    30    31   ar
    36    36    43    1
    37    36    33   ar
    38    43    44    1
    39    31    33   ar
    40    31    34    1
    41    33    38    1
    42    16    17   ar
    43    16    24    1
    44    17    20    1
    45    24    27    1
    46    24    25    1
