@<TRIPOS>MOLECULE
mol_data/noopt/geoms/mol2/4ih13dh(220)4el(160)12ei(280).out
 56 59 0 0 0
SMALL
GASTEIGER

@<TRIPOS>ATOM
      1 C           0.0509    0.0309    0.0002 C.ar    1  LIG1       -0.0497
      2 C           1.4592    0.0309    0.0002 C.ar    1  LIG1       -0.0479
      3 C          -0.6045    1.2792    0.0002 C.ar    1  LIG1       -0.0571
      4 C           2.1849    1.2200   -0.0004 C.ar    1  LIG1        0.0205
      5 H           1.9850   -0.9213    0.0004 H       1  LIG1        0.0627
      6 C           0.1195    2.4666   -0.0004 C.ar    1  LIG1       -0.0402
      7 C           1.5181    2.4458   -0.0008 C.ar    1  LIG1        0.0338
      8 H          -0.4090    3.4165   -0.0003 H       1  LIG1        0.0636
      9 H          -1.9035    1.3287    0.0016 H       1  LIG1        0.0621
     10 C          -0.5710   -1.1111    0.0005 C.3     1  LIG1       -0.0397
     11 H           0.0257   -1.8420    0.5050 H       1  LIG1        0.0278
     12 H          -0.7416   -1.4245   -1.0083 H       1  LIG1        0.0278
     13 H          -1.5088   -1.0063    0.5049 H       1  LIG1        0.0278
     14 N           2.1896    3.5590   -0.0012 N.pl3   1  LIG1       -0.3575
     15 H           3.0608    3.4225   -0.4727 H       1  LIG1        0.1423
     16 H           1.6626    4.2660   -0.4727 H       1  LIG1        0.1423
     17 C           3.4844    1.1831   -0.0005 C.ar    1  LIG1        0.0681
     18 C           4.3892    1.9769   -0.6323 C.ar    1  LIG1        0.0982
     19 C           5.6935    1.4946   -0.2906 C.ar    1  LIG1        0.0684
     20 C           5.5284    0.4283    0.5364 C.ar    1  LIG1        0.0704
     21 N           4.1775    0.2339    0.7163 N.ar    1  LIG1       -0.3516
     22 H           3.7676   -0.4784    1.2754 H       1  LIG1        0.1660
     23 N           3.8763    3.8764   -2.0865 N.1     1  LIG1       -0.1907
     24 C           4.1167    2.9862   -1.4050 C.1     1  LIG1        0.1032
     25 N           6.8283    1.9837   -0.6942 N.pl3   1  LIG1       -0.3553
     26 H           7.3080    1.3014   -1.2458 H       1  LIG1        0.1424
     27 H           6.6617    2.8010   -1.2459 H       1  LIG1        0.1424
     28 C           7.5001    0.2320    1.7926 C.ar    1  LIG1        0.0347
     29 C           8.4256   -0.6424    2.3943 C.ar    1  LIG1       -0.0315
     30 C           6.4076   -0.3394    1.1086 C.ar    1  LIG1        0.0190
     31 C           8.2719   -2.0249    2.3201 C.ar    1  LIG1        0.0612
     32 H           9.2760   -0.2226    2.9270 H       1  LIG1        0.0638
     33 C           6.2537   -1.7196    1.0343 C.ar    1  LIG1       -0.0089
     34 C           7.1837   -2.5717    1.6389 C.ar    1  LIG1        0.1315
     35 H           5.4029   -2.1359    0.5010 H       1  LIG1        0.0661
     36 C           7.6968    1.5129    1.8962 C.1     1  LIG1       -0.0690
     37 C           7.8786    2.6964    1.9918 C.1     1  LIG1       -0.1139
     38 H           8.0405    3.7506    2.0771 H       1  LIG1        0.1232
     39 O           7.0347   -3.8611    1.5659 O.3     1  LIG1       -0.4944
     40 C           5.6409   -4.1797    1.5391 C.3     1  LIG1        0.0788
     41 H           5.5187   -5.2410    1.4788 H       1  LIG1        0.0660
     42 H           5.1748   -3.8171    2.4314 H       1  LIG1        0.0660
     43 H           5.1861   -3.7194    0.6869 H       1  LIG1        0.0660
     44 C           9.1454   -2.8029    2.8874 C.ar    1  LIG1        0.1539
     45 C           9.9883   -3.8091    2.4631 C.ar    1  LIG1        0.0733
     46 C          10.7094   -4.2668    3.6325 C.ar    1  LIG1        0.0033
     47 C          10.2592   -3.5095    4.6942 C.ar    1  LIG1        0.0967
     48 O           9.2945   -2.5997    4.2600 O.2     1  LIG1       -0.4613
     49 H          10.5195   -3.4510    5.9666 H       1  LIG1        0.1032
     50 C          10.1278   -4.2746    1.2573 C.1     1  LIG1       -0.0656
     51 C          10.2568   -4.7048    0.1432 C.1     1  LIG1       -0.1138
     52 H          10.3716   -5.0879   -0.8492 H       1  LIG1        0.1232
     53 C          11.6033   -5.2110    3.6501 C.3     1  LIG1       -0.0355
     54 H          12.4782   -4.8644    4.1593 H       1  LIG1        0.0279
     55 H          11.8580   -5.4799    2.6462 H       1  LIG1        0.0279
     56 H          11.2093   -6.0657    4.1593 H       1  LIG1        0.0279
@<TRIPOS>BOND
     1    23    24    3
     2    24    18    1
     3    27    25    1
     4    26    25    1
     5    12    10    1
     6    52    51    1
     7    25    19    1
     8    18    19   ar
     9    18    17   ar
    10    16    14    1
    11    15    14    1
    12    19    20   ar
    13    14     7    1
    14     7     6   ar
    15     7     4   ar
    16    17     4    1
    17    17    21   ar
    18     6     8    1
    19     6     3   ar
    20     4     2   ar
    21     1     3   ar
    22     1     2   ar
    23     1    10    1
    24     3     9    1
    25     2     5    1
    26    10    13    1
    27    10    11    1
    28    51    50    3
    29    35    33    1
    30    20    21   ar
    31    20    30    1
    32    43    40    1
    33    21    22    1
    34    33    30   ar
    35    33    34   ar
    36    30    28   ar
    37    50    45    1
    38    41    40    1
    39    40    39    1
    40    40    42    1
    41    39    34    1
    42    34    31   ar
    43    28    36    1
    44    28    29   ar
    45    36    37    3
    46    37    38    1
    47    31    29   ar
    48    31    44    1
    49    29    32    1
    50    45    44   ar
    51    45    46   ar
    52    55    53    1
    53    44    48   ar
    54    46    53    1
    55    46    47   ar
    56    53    56    1
    57    53    54    1
    58    48    47   ar
    59    47    49    1
