@<TRIPOS>MOLECULE
mol_data/noopt/geoms/mol2/4ih12hd-12lh-4if.out
 54 57 0 0 0
SMALL
GASTEIGER

@<TRIPOS>ATOM
      1 C           0.0509    0.0309    0.0002 C.ar    1  LIG1       -0.0497
      2 C           1.4592    0.0309    0.0002 C.ar    1  LIG1       -0.0463
      3 C          -0.6045    1.2792    0.0002 C.ar    1  LIG1       -0.0571
      4 C           2.1849    1.2200   -0.0004 C.ar    1  LIG1        0.0400
      5 H           1.9850   -0.9213    0.0004 H       1  LIG1        0.0628
      6 C           0.1195    2.4666   -0.0004 C.ar    1  LIG1       -0.0401
      7 C           1.5181    2.4458   -0.0008 C.ar    1  LIG1        0.0354
      8 H          -0.4090    3.4165   -0.0003 H       1  LIG1        0.0636
      9 H          -1.9035    1.3287    0.0016 H       1  LIG1        0.0621
     10 C          -0.5710   -1.1111    0.0005 C.3     1  LIG1       -0.0397
     11 H           0.0257   -1.8420    0.5050 H       1  LIG1        0.0278
     12 H          -0.7416   -1.4245   -1.0083 H       1  LIG1        0.0278
     13 H          -1.5088   -1.0063    0.5049 H       1  LIG1        0.0278
     14 N           2.1896    3.5590   -0.0012 N.pl3   1  LIG1       -0.3574
     15 H           3.0608    3.4225   -0.4727 H       1  LIG1        0.1423
     16 H           1.6626    4.2660   -0.4727 H       1  LIG1        0.1423
     17 C           3.4844    1.1831   -0.0005 C.ar    1  LIG1        0.1594
     18 C           4.4399    0.1882    0.0142 C.ar    1  LIG1        0.0894
     19 C           5.7279    0.8500    0.0034 C.ar    1  LIG1        0.1218
     20 C           5.4738    2.2059   -0.0172 C.ar    1  LIG1        0.1935
     21 O           4.0977    2.4365   -0.0202 O.2     1  LIG1       -0.4483
     22 N           4.2495   -1.0976    0.0341 N.pl3   1  LIG1       -0.3540
     23 H           3.3920   -1.3148   -0.4322 H       1  LIG1        0.1425
     24 H           5.0073   -1.5540   -0.4322 H       1  LIG1        0.1425
     25 N           7.9048   -0.2666    0.0194 N.1     1  LIG1       -0.1907
     26 C           6.8846    0.2567    0.0119 C.1     1  LIG1        0.1050
     27 C           6.1998    3.2842   -0.0341 C.ar    1  LIG1        0.2151
     28 C           7.5515    3.5594   -0.0468 C.ar    1  LIG1        0.1902
     29 C           7.6810    5.0016   -0.0633 C.ar    1  LIG1        0.1141
     30 C           6.3992    5.5122   -0.0596 C.ar    1  LIG1        0.1605
     31 O           5.4686    4.4728   -0.0418 O.2     1  LIG1       -0.4459
     32 O           8.5364    2.7109   -0.0447 O.3     1  LIG1       -0.4896
     33 C           8.0181    1.3781   -0.0441 C.3     1  LIG1        0.0791
     34 H           8.8291    0.6800   -0.0425 H       1  LIG1        0.0660
     35 H           7.4178    1.2293    0.8291 H       1  LIG1        0.0660
     36 H           7.4197    1.2276   -0.9182 H       1  LIG1        0.0660
     37 N           8.8009    5.6617   -0.0785 N.pl3   1  LIG1       -0.3522
     38 H           9.4979    5.1247   -0.5538 H       1  LIG1        0.1425
     39 H           8.6688    6.5315   -0.5538 H       1  LIG1        0.1425
     40 C           6.7128    7.8372   -0.0727 C.ar    1  LIG1       -0.0395
     41 C           6.0975    9.1039   -0.0810 C.ar    1  LIG1       -0.0547
     42 C           5.8762    6.7022   -0.0686 C.ar    1  LIG1        0.0256
     43 C           4.7108    9.2372   -0.0855 C.ar    1  LIG1       -0.0199
     44 H           6.7243    9.9929   -0.0840 H       1  LIG1        0.0622
     45 C           4.4919    6.8347   -0.0732 C.ar    1  LIG1       -0.0092
     46 C           3.8995    8.1018   -0.0818 C.ar    1  LIG1        0.1176
     47 H           3.8683    5.9443   -0.0698 H       1  LIG1        0.0661
     48 H           4.1763   10.4222   -0.0932 H       1  LIG1        0.0654
     49 C           8.0117    7.7767   -0.0690 C.3     1  LIG1       -0.0390
     50 H           8.4072    8.6328    0.4364 H       1  LIG1        0.0278
     51 H           8.3708    7.7600   -1.0769 H       1  LIG1        0.0278
     52 H           8.3259    6.8874    0.4363 H       1  LIG1        0.0278
     53 O           2.6048    8.2195   -0.0858 O.3     1  LIG1       -0.5067
     54 H           2.2038    7.3472   -0.0868 H       1  LIG1        0.2921
@<TRIPOS>BOND
     1    51    49    1
     2    12    10    1
     3    36    33    1
     4    39    37    1
     5    38    37    1
     6    16    14    1
     7    15    14    1
     8    24    22    1
     9    23    22    1
    10    48    43    1
    11    54    53    1
    12    53    46    1
    13    43    46   ar
    14    43    41   ar
    15    44    41    1
    16    46    45   ar
    17    41    40   ar
    18    37    29    1
    19    45    47    1
    20    45    42   ar
    21    40    49    1
    22    40    42   ar
    23    49    52    1
    24    49    50    1
    25    42    30    1
    26    29    30   ar
    27    29    28   ar
    28    30    31   ar
    29    28    32    1
    30    28    27   ar
    31    32    33    1
    32    33    34    1
    33    33    35    1
    34    31    27   ar
    35    27    20    1
    36    21    20   ar
    37    21    17   ar
    38    20    19   ar
    39    14     7    1
    40     7     4   ar
    41     7     6   ar
    42    17     4    1
    43    17    18   ar
    44     4     2   ar
    45     6     8    1
    46     6     3   ar
    47     2     1   ar
    48     2     5    1
    49     3     1   ar
    50     3     9    1
    51     1    10    1
    52    10    13    1
    53    10    11    1
    54    19    26    1
    55    19    18   ar
    56    26    25    3
    57    18    22    1
