@<TRIPOS>MOLECULE
mol_data/noopt/geoms/mol2/4ih12ef-6ee12if.out
 51 54 0 0 0
SMALL
GASTEIGER

@<TRIPOS>ATOM
      1 C           0.0509    0.0309    0.0002 C.ar    1  LIG1       -0.0497
      2 C           1.4592    0.0309    0.0002 C.ar    1  LIG1       -0.0464
      3 C          -0.6045    1.2792    0.0002 C.ar    1  LIG1       -0.0571
      4 C           2.1849    1.2200   -0.0004 C.ar    1  LIG1        0.0395
      5 H           1.9850   -0.9213    0.0004 H       1  LIG1        0.0628
      6 C           0.1195    2.4666   -0.0004 C.ar    1  LIG1       -0.0401
      7 C           1.5181    2.4458   -0.0008 C.ar    1  LIG1        0.0354
      8 H          -0.4090    3.4165   -0.0003 H       1  LIG1        0.0636
      9 H          -1.9035    1.3287    0.0016 H       1  LIG1        0.0621
     10 C          -0.5710   -1.1111    0.0005 C.3     1  LIG1       -0.0397
     11 H           0.0257   -1.8420    0.5050 H       1  LIG1        0.0278
     12 H          -0.7416   -1.4245   -1.0083 H       1  LIG1        0.0278
     13 H          -1.5088   -1.0063    0.5049 H       1  LIG1        0.0278
     14 N           2.1896    3.5590   -0.0012 N.pl3   1  LIG1       -0.3574
     15 H           3.0608    3.4225   -0.4727 H       1  LIG1        0.1423
     16 H           1.6626    4.2660   -0.4727 H       1  LIG1        0.1423
     17 C           3.4844    1.1831   -0.0005 C.ar    1  LIG1        0.1565
     18 C           4.4399    0.1882    0.0142 C.ar    1  LIG1        0.1125
     19 C           5.7279    0.8500    0.0034 C.ar    1  LIG1        0.1791
     20 C           5.4738    2.2059   -0.0172 C.ar    1  LIG1        0.1808
     21 O           4.0977    2.4365   -0.0202 O.2     1  LIG1       -0.4496
     22 C           4.2495   -1.0976    0.0341 C.1     1  LIG1       -0.0622
     23 C           4.0736   -2.2857    0.0524 C.1     1  LIG1       -0.1137
     24 H           3.9169   -3.3441    0.0687 H       1  LIG1        0.1232
     25 O           6.8846    0.2566    0.0119 O.3     1  LIG1       -0.5024
     26 H           7.5827    0.9156    0.0140 H       1  LIG1        0.2923
     27 C           5.5901    4.5520   -0.0431 C.ar    1  LIG1        0.1248
     28 C           6.1999    3.2842   -0.0341 C.ar    1  LIG1        0.0559
     29 C           7.5942    3.2149   -0.0433 C.ar    1  LIG1       -0.0307
     30 C           8.3259    4.4035   -0.0612 C.ar    1  LIG1        0.0544
     31 C           7.6251    5.6235   -0.0693 C.ar    1  LIG1        0.1231
     32 N           6.2805    5.7087   -0.0605 N.ar    1  LIG1       -0.2334
     33 H           8.1061    2.2422   -0.0376 H       1  LIG1        0.0638
     34 C           4.2953    4.6679   -0.0351 C.1     1  LIG1       -0.0491
     35 C           3.0989    4.7750   -0.0276 C.1     1  LIG1       -0.1124
     36 H           2.0332    4.8704   -0.0209 H       1  LIG1        0.1232
     37 C           9.6258    4.3924   -0.0706 C.1     1  LIG1       -0.0674
     38 C          10.8270    4.3821   -0.0792 C.1     1  LIG1       -0.1138
     39 H          11.8969    4.3729   -0.0869 H       1  LIG1        0.1232
     40 C           8.2619    6.7567   -0.0859 C.ar    1  LIG1        0.1607
     41 C           9.5870    7.1402   -0.0837 C.ar    1  LIG1        0.0383
     42 C           9.5999    8.5880   -0.1106 C.ar    1  LIG1        0.1580
     43 C           8.2812    8.9933   -0.1275 C.ar    1  LIG1        0.1342
     44 O           7.4372    7.8823   -0.1129 O.2     1  LIG1       -0.4573
     45 H           7.6640   10.1372   -0.1532 H       1  LIG1        0.1068
     46 C          10.6373    6.3739   -0.0619 C.3     1  LIG1       -0.0326
     47 H          11.4335    6.8744    0.4484 H       1  LIG1        0.0280
     48 H          10.9391    6.1537   -1.0646 H       1  LIG1        0.0280
     49 H          10.4035    5.4629    0.4484 H       1  LIG1        0.0280
     50 O          10.6630    9.3362   -0.1170 O.3     1  LIG1       -0.5034
     51 H          10.4042   10.2607   -0.1185 H       1  LIG1        0.2923
@<TRIPOS>BOND
     1    48    46    1
     2    12    10    1
     3    16    14    1
     4    15    14    1
     5    45    43    1
     6    43    44   ar
     7    43    42   ar
     8    51    50    1
     9    50    42    1
    10    44    40   ar
    11    42    41   ar
    12    39    38    1
    13    40    41   ar
    14    40    31    1
    15    41    46    1
    16    38    37    3
    17    37    30    1
    18    31    30   ar
    19    31    32   ar
    20    46    49    1
    21    46    47    1
    22    30    29   ar
    23    32    27   ar
    24    29    33    1
    25    29    28   ar
    26    27    34    1
    27    27    28   ar
    28    34    35    3
    29    28    20    1
    30    35    36    1
    31    21    20   ar
    32    21    17   ar
    33    20    19   ar
    34    14     7    1
    35     7     6   ar
    36     7     4   ar
    37    17     4    1
    38    17    18   ar
    39     6     8    1
    40     6     3   ar
    41     4     2   ar
    42     1     3   ar
    43     1     2   ar
    44     1    10    1
    45     3     9    1
    46     2     5    1
    47    10    13    1
    48    10    11    1
    49    19    25    1
    50    19    18   ar
    51    25    26    1
    52    18    22    1
    53    22    23    3
    54    23    24    1
