@<TRIPOS>MOLECULE
mol_data/noopt/geoms/mol2/4ih12dd(50)12fd(220)13ld.out
 48 50 0 0 0
SMALL
GASTEIGER

@<TRIPOS>ATOM
      1 C           0.0509    0.0309    0.0002 C.ar    1  LIG1       -0.0497
      2 C           1.4592    0.0309    0.0002 C.ar    1  LIG1       -0.0464
      3 C          -0.6045    1.2792    0.0002 C.ar    1  LIG1       -0.0571
      4 C           2.1849    1.2200   -0.0004 C.ar    1  LIG1        0.0395
      5 H           1.9850   -0.9213    0.0004 H       1  LIG1        0.0628
      6 C           0.1195    2.4666   -0.0004 C.ar    1  LIG1       -0.0401
      7 C           1.5181    2.4458   -0.0008 C.ar    1  LIG1        0.0354
      8 H          -0.4090    3.4165   -0.0003 H       1  LIG1        0.0636
      9 H          -1.9035    1.3287    0.0016 H       1  LIG1        0.0621
     10 C          -0.5710   -1.1111    0.0005 C.3     1  LIG1       -0.0397
     11 H           0.0257   -1.8420    0.5050 H       1  LIG1        0.0278
     12 H          -0.7416   -1.4245   -1.0083 H       1  LIG1        0.0278
     13 H          -1.5088   -1.0063    0.5049 H       1  LIG1        0.0278
     14 N           2.1896    3.5590   -0.0012 N.pl3   1  LIG1       -0.3574
     15 H           3.0608    3.4225   -0.4727 H       1  LIG1        0.1423
     16 H           1.6626    4.2660   -0.4727 H       1  LIG1        0.1423
     17 C           3.4844    1.1831   -0.0005 C.ar    1  LIG1        0.1561
     18 C           4.4484    0.4862    0.6981 C.ar    1  LIG1        0.1154
     19 C           5.7303    0.9329    0.1938 C.ar    1  LIG1        0.1155
     20 C           5.4643    1.8735   -0.7799 C.ar    1  LIG1        0.1586
     21 O           4.0865    2.0450   -0.9182 O.2     1  LIG1       -0.4520
     22 N           4.1115   -1.1853    2.4526 N.1     1  LIG1       -0.1907
     23 C           4.2694   -0.4019    1.6304 C.1     1  LIG1        0.1043
     24 N           7.9164    0.1412    0.9551 N.1     1  LIG1       -0.1907
     25 C           6.8919    0.5122    0.5984 C.1     1  LIG1        0.1043
     26 C           6.1807    2.6134   -1.5733 C.2     1  LIG1        0.0756
     27 C           5.9193    3.4641   -2.6273 C.2     1  LIG1        0.1494
     28 C           7.1980    3.9761   -3.0741 C.2     1  LIG1        0.1424
     29 C           8.1564    3.4041   -2.2629 C.2     1  LIG1        0.2265
     30 O           7.5538    2.5600   -1.3296 O.2     1  LIG1       -0.2841
     31 O           4.7627    3.7648   -3.1392 O.2     1  LIG1       -0.5046
     32 H           4.2499    2.9631   -3.2653 H       1  LIG1        0.2922
     33 N           7.5391    5.5498   -4.9161 N.1     1  LIG1       -0.1906
     34 C           7.3792    4.8123   -4.0528 C.1     1  LIG1        0.1068
     35 C           9.4516    3.4693   -2.1717 C.ar    1  LIG1        0.1314
     36 C          10.3823    2.4803   -2.1102 C.ar    1  LIG1        0.1658
     37 C          11.6665    3.1069   -2.0165 C.ar    1  LIG1        0.1113
     38 C          11.4643    4.4511   -2.0266 C.ar    1  LIG1        0.0234
     39 N          10.1096    4.6774   -2.1211 N.ar    1  LIG1       -0.3540
     40 H           9.6756    5.5712   -2.1490 H       1  LIG1        0.1656
     41 H          12.3144    5.4326   -1.9629 H       1  LIG1        0.0821
     42 O          10.1459    1.2021   -2.1313 O.3     1  LIG1       -0.4916
     43 C           8.7336    0.9780   -2.1391 C.3     1  LIG1        0.0789
     44 H           8.5396   -0.0742   -2.1565 H       1  LIG1        0.0660
     45 H           8.2996    1.4061   -1.2597 H       1  LIG1        0.0660
     46 H           8.3048    1.4342   -3.0067 H       1  LIG1        0.0660
     47 N          13.8296    1.9736   -1.8665 N.1     1  LIG1       -0.1907
     48 C          12.8159    2.5047   -1.9368 C.1     1  LIG1        0.1044
@<TRIPOS>BOND
     1    33    34    3
     2    34    28    1
     3    32    31    1
     4    31    27    1
     5    28    27    1
     6    28    29    2
     7    46    43    1
     8    27    26    2
     9    29    35    1
    10    29    30    1
    11    35    39   ar
    12    35    36   ar
    13    44    43    1
    14    40    39    1
    15    43    42    1
    16    43    45    1
    17    42    36    1
    18    39    38   ar
    19    36    37   ar
    20    38    37   ar
    21    38    41    1
    22    37    48    1
    23    48    47    3
    24    26    20    1
    25    12    10    1
    26    21    20   ar
    27    21    17   ar
    28    20    19   ar
    29    16    14    1
    30    15    14    1
    31    14     7    1
    32     7     6   ar
    33     7     4   ar
    34    17     4    1
    35    17    18   ar
    36     6     8    1
    37     6     3   ar
    38     4     2   ar
    39     1     3   ar
    40     1     2   ar
    41     1    10    1
    42     3     9    1
    43     2     5    1
    44    10    13    1
    45    10    11    1
    46    19    25    1
    47    19    18   ar
    48    25    24    3
    49    18    23    1
    50    23    22    3
