@<TRIPOS>MOLECULE
mol_data/noopt/geoms/mol2/4ih13ff(210)13le(330)6if(140).out
 54 57 0 0 0
SMALL
GASTEIGER

@<TRIPOS>ATOM
      1 C           0.0509    0.0309    0.0002 C.ar    1  LIG1       -0.0497
      2 C           1.4592    0.0309    0.0002 C.ar    1  LIG1       -0.0478
      3 C          -0.6045    1.2792    0.0002 C.ar    1  LIG1       -0.0571
      4 C           2.1849    1.2200   -0.0004 C.ar    1  LIG1        0.0229
      5 H           1.9850   -0.9213    0.0004 H       1  LIG1        0.0627
      6 C           0.1195    2.4666   -0.0004 C.ar    1  LIG1       -0.0402
      7 C           1.5181    2.4458   -0.0008 C.ar    1  LIG1        0.0339
      8 H          -0.4090    3.4165   -0.0003 H       1  LIG1        0.0636
      9 H          -1.9035    1.3287    0.0016 H       1  LIG1        0.0621
     10 C          -0.5710   -1.1111    0.0005 C.3     1  LIG1       -0.0397
     11 H           0.0257   -1.8420    0.5050 H       1  LIG1        0.0278
     12 H          -0.7416   -1.4245   -1.0083 H       1  LIG1        0.0278
     13 H          -1.5088   -1.0063    0.5049 H       1  LIG1        0.0278
     14 N           2.1896    3.5590   -0.0012 N.pl3   1  LIG1       -0.3575
     15 H           3.0608    3.4225   -0.4727 H       1  LIG1        0.1423
     16 H           1.6626    4.2660   -0.4727 H       1  LIG1        0.1423
     17 C           3.4844    1.1831   -0.0005 C.ar    1  LIG1        0.0945
     18 C           4.3919    2.0715   -0.4854 C.ar    1  LIG1        0.1849
     19 C           5.6947    1.5380   -0.2234 C.ar    1  LIG1        0.1864
     20 C           5.5261    0.3479    0.4115 C.ar    1  LIG1        0.1128
     21 N           4.1744    0.1265    0.5496 N.ar    1  LIG1       -0.3470
     22 H           3.7621   -0.6695    0.9790 H       1  LIG1        0.1662
     23 O           4.1227    3.1966   -1.0785 O.3     1  LIG1       -0.5019
     24 H           3.1762    3.2633   -1.2247 H       1  LIG1        0.2924
     25 O           6.8313    2.0877   -0.5336 O.3     1  LIG1       -0.5019
     26 H           6.7175    3.0378   -0.6101 H       1  LIG1        0.2924
     27 C           6.4029   -0.5056    0.8506 C.ar    1  LIG1        0.1105
     28 C           6.4782   -1.8535    0.6914 C.ar    1  LIG1        0.1627
     29 C           7.6480   -2.3015    1.3853 C.ar    1  LIG1        0.0922
     30 C           8.2371   -1.2073    1.9365 C.ar    1  LIG1        0.0680
     31 N           7.4779   -0.1058    1.6120 N.ar    1  LIG1       -0.3489
     32 H           7.6749    0.8298    1.8838 H       1  LIG1        0.1661
     33 O           5.6397   -2.5961    0.0314 O.3     1  LIG1       -0.4917
     34 C           4.4382   -1.8594   -0.2110 C.3     1  LIG1        0.0789
     35 H           3.7484   -2.4709   -0.7544 H       1  LIG1        0.0660
     36 H           4.0014   -1.5723    0.7227 H       1  LIG1        0.0660
     37 H           4.6657   -0.9840   -0.7825 H       1  LIG1        0.0660
     38 C           8.0720   -3.5272    1.4737 C.1     1  LIG1       -0.0638
     39 C           8.4637   -4.6598    1.5553 C.1     1  LIG1       -0.1137
     40 H           8.8126   -5.6687    1.6281 H       1  LIG1        0.1232
     41 C          10.4248   -1.9278    2.3982 C.ar    1  LIG1        0.0476
     42 C           9.3153   -1.1018    2.6551 C.ar    1  LIG1        0.0241
     43 C           9.4020   -0.1729    3.6937 C.ar    1  LIG1       -0.0078
     44 C          10.5832   -0.1010    4.4341 C.ar    1  LIG1        0.1355
     45 C          11.6384   -0.9701    4.1012 C.ar    1  LIG1        0.0693
     46 N          11.5719   -1.8720    3.1024 N.ar    1  LIG1       -0.2559
     47 H           8.5552    0.4888    3.9246 H       1  LIG1        0.0662
     48 H          12.7579   -0.9410    4.7612 H       1  LIG1        0.0867
     49 C          10.3922   -2.8081    1.4417 C.3     1  LIG1       -0.0217
     50 H          11.2425   -3.4527    1.5210 H       1  LIG1        0.0293
     51 H          10.4108   -2.3080    0.4959 H       1  LIG1        0.0293
     52 H           9.4964   -3.3879    1.5210 H       1  LIG1        0.0293
     53 O          10.7135    0.7468    5.4110 O.3     1  LIG1       -0.5052
     54 H           9.8512    1.0932    5.6518 H       1  LIG1        0.2922
@<TRIPOS>BOND
     1    24    23    1
     2    23    18    1
     3    12    10    1
     4    37    34    1
     5    35    34    1
     6    26    25    1
     7    25    19    1
     8    18    19   ar
     9    18    17   ar
    10    16    14    1
    11    15    14    1
    12    19    20   ar
    13    34    33    1
    14    34    36    1
    15    14     7    1
    16     7     4   ar
    17     7     6   ar
    18    17     4    1
    19    17    21   ar
    20     4     2   ar
    21     6     8    1
    22     6     3   ar
    23     1     3   ar
    24     1     2   ar
    25     1    10    1
    26     3     9    1
    27     2     5    1
    28    10    13    1
    29    10    11    1
    30    33    28    1
    31    20    21   ar
    32    20    27    1
    33    51    49    1
    34    21    22    1
    35    28    27   ar
    36    28    29   ar
    37    27    31   ar
    38    29    38    1
    39    29    30   ar
    40    49    52    1
    41    49    50    1
    42    49    41    1
    43    38    39    3
    44    39    40    1
    45    31    32    1
    46    31    30   ar
    47    30    42    1
    48    41    42   ar
    49    41    46   ar
    50    42    43   ar
    51    46    45   ar
    52    43    47    1
    53    43    44   ar
    54    45    44   ar
    55    45    48    1
    56    44    53    1
    57    53    54    1
