@<TRIPOS>MOLECULE
mol_data/noopt/geoms/mol2/4ih13ee(40)6eh(270)6hd.out
 54 57 0 0 0
SMALL
GASTEIGER

@<TRIPOS>ATOM
      1 C           0.0509    0.0309    0.0002 C.ar    1  LIG1       -0.0497
      2 C           1.4592    0.0309    0.0002 C.ar    1  LIG1       -0.0479
      3 C          -0.6045    1.2792    0.0002 C.ar    1  LIG1       -0.0571
      4 C           2.1849    1.2200   -0.0004 C.ar    1  LIG1        0.0204
      5 H           1.9850   -0.9213    0.0004 H       1  LIG1        0.0627
      6 C           0.1195    2.4666   -0.0004 C.ar    1  LIG1       -0.0402
      7 C           1.5181    2.4458   -0.0008 C.ar    1  LIG1        0.0338
      8 H          -0.4090    3.4165   -0.0003 H       1  LIG1        0.0636
      9 H          -1.9035    1.3287    0.0016 H       1  LIG1        0.0621
     10 C          -0.5710   -1.1111    0.0005 C.3     1  LIG1       -0.0397
     11 H           0.0257   -1.8420    0.5050 H       1  LIG1        0.0278
     12 H          -0.7416   -1.4245   -1.0083 H       1  LIG1        0.0278
     13 H          -1.5088   -1.0063    0.5049 H       1  LIG1        0.0278
     14 N           2.1896    3.5590   -0.0012 N.pl3   1  LIG1       -0.3575
     15 H           3.0608    3.4225   -0.4727 H       1  LIG1        0.1423
     16 H           1.6626    4.2660   -0.4727 H       1  LIG1        0.1423
     17 C           3.4844    1.1831   -0.0005 C.ar    1  LIG1        0.0655
     18 C           4.3428    0.3393    0.6312 C.ar    1  LIG1        0.0659
     19 C           5.6723    0.7468    0.2893 C.ar    1  LIG1        0.0659
     20 C           5.5679    1.8206   -0.5378 C.ar    1  LIG1        0.0664
     21 N           4.2301    2.0914   -0.7175 N.ar    1  LIG1       -0.3521
     22 H           3.8612    2.8257   -1.2767 H       1  LIG1        0.1660
     23 C           4.0136   -0.6528    1.4041 C.1     1  LIG1       -0.0663
     24 C           3.7094   -1.5696    2.1182 C.1     1  LIG1       -0.1138
     25 H           3.4384   -2.3862    2.7543 H       1  LIG1        0.1232
     26 C           6.7776    0.1941    0.6928 C.1     1  LIG1       -0.0663
     27 C           7.7989   -0.3166    1.0657 C.1     1  LIG1       -0.1138
     28 H           8.7086   -0.7715    1.3979 H       1  LIG1        0.1232
     29 C           7.4152    3.2572   -0.3335 C.ar    1  LIG1        0.1231
     30 C           6.4892    2.5372   -1.1103 C.ar    1  LIG1        0.0351
     31 C           6.5850    2.6115   -2.5011 C.ar    1  LIG1       -0.0271
     32 C           7.5933    3.3956   -3.0642 C.ar    1  LIG1        0.0517
     33 C           8.4720    4.0791   -2.2038 C.ar    1  LIG1        0.0963
     34 N           8.3941    4.0184   -0.8601 N.ar    1  LIG1       -0.2358
     35 H           5.8787    2.0636   -3.1407 H       1  LIG1        0.0644
     36 C           7.3666    3.2195    0.9650 C.1     1  LIG1       -0.0491
     37 C           7.3217    3.1846    2.1649 C.1     1  LIG1       -0.1124
     38 H           7.2817    3.1535    3.2337 H       1  LIG1        0.1232
     39 N           7.7244    3.4976   -4.3536 N.pl3   1  LIG1       -0.3563
     40 H           7.8905    2.5922   -4.7443 H       1  LIG1        0.1424
     41 H           6.8875    3.8809   -4.7444 H       1  LIG1        0.1424
     42 C           9.2041    6.1860   -2.9409 C.ar    1  LIG1        0.1255
     43 C           9.4268    4.8215   -2.6804 C.ar    1  LIG1        0.0429
     44 C          10.6904    4.2899   -2.9447 C.ar    1  LIG1       -0.0303
     45 C          11.6799    5.1314   -3.4559 C.ar    1  LIG1        0.0706
     46 C          11.3606    6.4826   -3.6834 C.ar    1  LIG1        0.0471
     47 N          10.1471    7.0121   -3.4340 N.ar    1  LIG1       -0.2388
     48 H          10.9015    3.2280   -2.7547 H       1  LIG1        0.0638
     49 H          12.2481    7.3053   -4.1583 H       1  LIG1        0.0843
     50 N           8.0444    6.7269   -2.7111 N.pl3   1  LIG1       -0.3426
     51 H           8.0167    7.6408   -3.1161 H       1  LIG1        0.1437
     52 H           7.3265    6.1609   -3.1161 H       1  LIG1        0.1437
     53 N          13.9236    4.2906   -3.9506 N.1     1  LIG1       -0.1908
     54 C          12.8721    4.6846   -3.7187 C.1     1  LIG1        0.1007
@<TRIPOS>BOND
     1    41    39    1
     2    40    39    1
     3    39    32    1
     4    49    46    1
     5    53    54    3
     6    54    45    1
     7    46    45   ar
     8    46    47   ar
     9    45    44   ar
    10    47    42   ar
    11    35    31    1
    12    52    50    1
    13    51    50    1
    14    32    31   ar
    15    32    33   ar
    16    44    48    1
    17    44    43   ar
    18    42    50    1
    19    42    43   ar
    20    43    33    1
    21    31    30   ar
    22    33    34   ar
    23    22    21    1
    24    30    20    1
    25    30    29   ar
    26    12    10    1
    27    34    29   ar
    28    21    20   ar
    29    21    17   ar
    30    20    19   ar
    31    16    14    1
    32    15    14    1
    33    29    36    1
    34    14     7    1
    35     7     4   ar
    36     7     6   ar
    37    17     4    1
    38    17    18   ar
    39     4     2   ar
    40     6     8    1
    41     6     3   ar
    42     1     2   ar
    43     1     3   ar
    44     1    10    1
    45     2     5    1
    46     3     9    1
    47    10    13    1
    48    10    11    1
    49    19    18   ar
    50    19    26    1
    51    18    23    1
    52    26    27    3
    53    36    37    3
    54    27    28    1
    55    23    24    3
    56    24    25    1
    57    37    38    1
