@<TRIPOS>MOLECULE
mol_data/noopt/geoms/mol2/4ih4ih12ef-6ie.out
 56 59 0 0 0
SMALL
GASTEIGER

@<TRIPOS>ATOM
      1 C           0.0509    0.0309    0.0002 C.ar    1  LIG1       -0.0498
      2 C           1.4592    0.0309    0.0002 C.ar    1  LIG1       -0.0493
      3 C          -0.6045    1.2792    0.0002 C.ar    1  LIG1       -0.0571
      4 C           2.1849    1.2200   -0.0004 C.ar    1  LIG1        0.0033
      5 H           1.9850   -0.9213    0.0004 H       1  LIG1        0.0627
      6 C           0.1195    2.4666   -0.0004 C.ar    1  LIG1       -0.0402
      7 C           1.5181    2.4458   -0.0008 C.ar    1  LIG1        0.0324
      8 H          -0.4090    3.4165   -0.0003 H       1  LIG1        0.0636
      9 H          -1.9035    1.3287    0.0016 H       1  LIG1        0.0621
     10 C          -0.5710   -1.1111    0.0005 C.3     1  LIG1       -0.0397
     11 H           0.0257   -1.8420    0.5050 H       1  LIG1        0.0278
     12 H          -0.7416   -1.4245   -1.0083 H       1  LIG1        0.0278
     13 H          -1.5088   -1.0063    0.5049 H       1  LIG1        0.0278
     14 N           2.1896    3.5590   -0.0012 N.pl3   1  LIG1       -0.3575
     15 H           3.0608    3.4225   -0.4727 H       1  LIG1        0.1423
     16 H           1.6626    4.2660   -0.4727 H       1  LIG1        0.1423
     17 C           4.1518   -0.0588    0.0002 C.ar    1  LIG1       -0.0419
     18 C           5.5600   -0.0451    0.0016 C.ar    1  LIG1       -0.0458
     19 C           3.4843    1.1831   -0.0005 C.ar    1  LIG1       -0.0114
     20 C           6.2742    1.1510    0.0017 C.ar    1  LIG1        0.0395
     21 H           6.0950   -0.9922    0.0024 H       1  LIG1        0.0628
     22 C           4.1968    2.3775   -0.0004 C.ar    1  LIG1       -0.0323
     23 C           5.5955    2.3702    0.0006 C.ar    1  LIG1        0.0360
     24 H           3.6591    3.3222   -0.0009 H       1  LIG1        0.0642
     25 C           3.5410   -1.2067   -0.0001 C.3     1  LIG1       -0.0391
     26 H           4.1447   -1.9321    0.5043 H       1  LIG1        0.0278
     27 H           3.3736   -1.5215   -1.0090 H       1  LIG1        0.0278
     28 H           2.6021   -1.1113    0.5042 H       1  LIG1        0.0278
     29 N           6.2562    3.4899    0.0008 N.pl3   1  LIG1       -0.3574
     30 H           7.1288    3.3621   -0.4705 H       1  LIG1        0.1423
     31 H           5.7224    4.1919   -0.4706 H       1  LIG1        0.1423
     32 C           7.5739    1.1267    0.0029 C.ar    1  LIG1        0.1565
     33 C           8.5390    0.1411    0.0186 C.ar    1  LIG1        0.1125
     34 C           9.8206    0.8153    0.0091 C.ar    1  LIG1        0.1791
     35 C           9.5534    2.1688   -0.0119 C.ar    1  LIG1        0.1799
     36 O           8.1751    2.3860   -0.0162 O.2     1  LIG1       -0.4497
     37 C           8.3611   -1.1465    0.0383 C.1     1  LIG1       -0.0622
     38 C           8.1967   -2.3363    0.0565 C.1     1  LIG1       -0.1137
     39 H           8.0503   -3.3961    0.0727 H       1  LIG1        0.1232
     40 O          10.9830    0.2332    0.0187 O.3     1  LIG1       -0.5024
     41 H          11.6747    0.8990    0.0211 H       1  LIG1        0.2923
     42 C           9.6469    4.5159   -0.0367 C.ar    1  LIG1        0.0490
     43 C          10.2689    3.2540   -0.0281 C.ar    1  LIG1        0.0431
     44 C          11.6639    3.1982   -0.0368 C.ar    1  LIG1       -0.0324
     45 C          12.3841    4.3939   -0.0541 C.ar    1  LIG1        0.0434
     46 C          11.6715    5.6070   -0.0618 C.ar    1  LIG1        0.0433
     47 N          10.3261    5.6792   -0.0533 N.ar    1  LIG1       -0.2582
     48 H          12.1852    2.2305   -0.0315 H       1  LIG1        0.0638
     49 H          12.2972    6.7463   -0.0777 H       1  LIG1        0.0842
     50 C           8.3507    4.6192   -0.0290 C.3     1  LIG1       -0.0217
     51 H           7.9287    3.7765    0.4776 H       1  LIG1        0.0293
     52 H           7.9892    4.6480   -1.0357 H       1  LIG1        0.0293
     53 H           8.0677    5.5183    0.4775 H       1  LIG1        0.0293
     54 C          13.6840    4.3954   -0.0630 C.1     1  LIG1       -0.0681
     55 C          14.8852    4.3967   -0.0713 C.1     1  LIG1       -0.1139
     56 H          15.9552    4.3979   -0.0786 H       1  LIG1        0.1232
@<TRIPOS>BOND
     1    52    50    1
     2    27    25    1
     3    12    10    1
     4    16    14    1
     5    15    14    1
     6    31    29    1
     7    30    29    1
     8    56    55    1
     9    49    46    1
    10    55    54    3
    11    54    45    1
    12    46    45   ar
    13    46    47   ar
    14    45    44   ar
    15    47    42   ar
    16    44    48    1
    17    44    43   ar
    18    42    50    1
    19    42    43   ar
    20    50    53    1
    21    50    51    1
    22    43    35    1
    23    36    35   ar
    24    36    32   ar
    25    35    34   ar
    26    14     7    1
    27    24    22    1
    28     7     4   ar
    29     7     6   ar
    30    19    22   ar
    31    19     4    1
    32    19    17   ar
    33    22    23   ar
    34     4     2   ar
    35     6     8    1
    36     6     3   ar
    37    25    17    1
    38    25    28    1
    39    25    26    1
    40     1     2   ar
    41     1     3   ar
    42     1    10    1
    43     2     5    1
    44     3     9    1
    45    17    18   ar
    46    10    13    1
    47    10    11    1
    48    23    29    1
    49    23    20   ar
    50    18    20   ar
    51    18    21    1
    52    20    32    1
    53    32    33   ar
    54    34    33   ar
    55    34    40    1
    56    33    37    1
    57    40    41    1
    58    37    38    3
    59    38    39    1
