@<TRIPOS>MOLECULE
mol_data/noopt/geoms/mol2/4ii12ea-6ed-12eh4ai-13ef6eh-6ie-.out
 101 109 0 0 0
SMALL
GASTEIGER

@<TRIPOS>ATOM
      1 C           0.0509    0.0309    0.0002 C.ar    1  LIG1       -0.0498
      2 C           1.4592    0.0309    0.0002 C.ar    1  LIG1       -0.0479
      3 C          -0.6045    1.2792    0.0002 C.ar    1  LIG1       -0.0586
      4 C           2.1849    1.2200   -0.0004 C.ar    1  LIG1        0.0217
      5 H           1.9850   -0.9213    0.0004 H       1  LIG1        0.0627
      6 C           0.1195    2.4666   -0.0004 C.ar    1  LIG1       -0.0579
      7 C           1.5181    2.4458   -0.0008 C.ar    1  LIG1       -0.0397
      8 H          -0.4090    3.4165   -0.0003 H       1  LIG1        0.0620
      9 H          -1.9035    1.3287    0.0016 H       1  LIG1        0.0620
     10 C          -0.5710   -1.1111    0.0005 C.3     1  LIG1       -0.0397
     11 H           0.0257   -1.8420    0.5050 H       1  LIG1        0.0278
     12 H          -0.7416   -1.4245   -1.0083 H       1  LIG1        0.0278
     13 H          -1.5088   -1.0063    0.5049 H       1  LIG1        0.0278
     14 C           2.1897    3.5592   -0.0012 C.3     1  LIG1       -0.0390
     15 H           1.6260    4.3160    0.5031 H       1  LIG1        0.0278
     16 H           2.3738    3.8644   -1.0102 H       1  LIG1        0.0278
     17 H           3.1221    3.4135    0.5030 H       1  LIG1        0.0278
     18 C           3.4844    1.1831   -0.0005 C.ar    1  LIG1        0.1512
     19 C           4.4399    0.1882    0.0142 C.ar    1  LIG1        0.0710
     20 C           5.7279    0.8500    0.0034 C.ar    1  LIG1        0.0003
     21 C           5.4738    2.2059   -0.0172 C.ar    1  LIG1        0.1396
     22 O           4.0977    2.4365   -0.0202 O.2     1  LIG1       -0.4535
     23 C           4.2495   -1.0976    0.0341 C.1     1  LIG1       -0.0658
     24 C           4.0736   -2.2857    0.0524 C.1     1  LIG1       -0.1138
     25 H           3.9169   -3.3441    0.0687 H       1  LIG1        0.1232
     26 H           6.8846    0.2567    0.0119 H       1  LIG1        0.0668
     27 C           5.5901    4.5517   -0.0643 C.ar    1  LIG1        0.1242
     28 C           6.1999    3.2842   -0.0341 C.ar    1  LIG1        0.0514
     29 C           7.5942    3.2152   -0.0224 C.ar    1  LIG1       -0.0411
     30 C           8.3259    4.4038   -0.0414 C.ar    1  LIG1        0.0092
     31 C           7.6251    5.6235   -0.0715 C.ar    1  LIG1        0.1013
     32 N           6.2805    5.7083   -0.0829 N.ar    1  LIG1       -0.2377
     33 H           8.1061    2.2428    0.0001 H       1  LIG1        0.0629
     34 C           4.2953    4.6673   -0.0761 C.1     1  LIG1       -0.0491
     35 C           3.0989    4.7741   -0.0870 C.1     1  LIG1       -0.1124
     36 H           2.0331    4.8692   -0.0966 H       1  LIG1        0.1232
     37 N          10.7724    4.3834   -0.0234 N.pl3   1  LIG1       -0.2336
     38 C           9.6258    4.3930   -0.0318 C.3     1  LIG1        0.1392
     39 C           8.2619    6.7567   -0.0899 C.3     1  LIG1        0.2358
     40 C           9.5870    7.1401   -0.0891 C.2     1  LIG1        0.0739
     41 C           9.5999    8.5879   -0.1177 C.2     1  LIG1        0.0828
     42 C           8.2811    8.9932   -0.1343 C.2     1  LIG1        0.1513
     43 O           7.4372    7.8822   -0.1177 O.2     1  LIG1       -0.4668
     44 C          10.6370    6.3740   -0.0671 C.1     1  LIG1       -0.0932
     45 C          11.6073    5.6661   -0.0467 C.2     1  LIG1        0.0550
     46 H          12.4715    5.0355   -0.0286 H       1  LIG1        0.0888
     47 N          10.6630    9.3361   -0.1258 N.pl3   1  LIG1       -0.3543
     48 H          11.4031    8.8585   -0.5992 H       1  LIG1        0.1425
     49 H          10.4632   10.1939   -0.5993 H       1  LIG1        0.1425
     50 C           8.4059   11.3359   -0.1532 C.ar    1  LIG1       -0.0504
     51 C           7.6906   12.5486   -0.1815 C.ar    1  LIG1       -0.0517
     52 C           7.6640   10.1370   -0.1609 C.ar    1  LIG1        0.0189
     53 C           6.2981   12.5692   -0.2165 C.ar    1  LIG1        0.0026
     54 H           8.2434   13.4854   -0.1760 H       1  LIG1        0.0624
     55 C           6.2739   10.1570   -0.1959 C.ar    1  LIG1       -0.0475
     56 C           5.5814   11.3719   -0.2240 C.ar    1  LIG1       -0.0406
     57 H           5.7244    9.2190   -0.2010 H       1  LIG1        0.0627
     58 H           9.7048   11.3807   -0.1214 H       1  LIG1        0.0625
     59 C           4.2815   11.3844   -0.2565 C.3     1  LIG1       -0.0391
     60 H           3.9040   10.5144    0.2389 H       1  LIG1        0.0278
     61 H           3.9501   11.3875   -1.2739 H       1  LIG1        0.0278
     62 H           3.9208   12.2616    0.2388 H       1  LIG1        0.0278
     63 C           5.6698   13.7070   -0.2421 C.ar    1  LIG1        0.0664
     64 C           6.1492   14.9790   -0.2598 C.ar    1  LIG1        0.0919
     65 C           5.0212   15.8608   -0.2844 C.ar    1  LIG1        0.1581
     66 C           3.9021   15.0889   -0.2824 C.ar    1  LIG1        0.0929
     67 N           4.2947   13.7696   -0.2561 N.ar    1  LIG1       -0.3502
     68 H           3.6824   12.9866   -0.2489 H       1  LIG1        0.1660
     69 C           7.4017   15.3269   -0.2538 C.1     1  LIG1       -0.0639
     70 C           8.5591   15.6483   -0.2482 C.1     1  LIG1       -0.1137
     71 H           9.5901   15.9347   -0.2433 H       1  LIG1        0.1232
     72 O           5.0566   17.1602   -0.3053 O.3     1  LIG1       -0.5035
     73 H           4.1607   17.5051   -0.3104 H       1  LIG1        0.2923
     74 C           1.6465   14.4345   -0.3299 C.ar    1  LIG1        0.1231
     75 C           2.6462   15.4240   -0.2995 C.ar    1  LIG1        0.0375
     76 C           2.2571   16.7647   -0.2881 C.ar    1  LIG1       -0.0271
     77 C           0.8949   17.0693   -0.3074 C.ar    1  LIG1        0.0517
     78 C          -0.0298   16.0093   -0.3376 C.ar    1  LIG1        0.0947
     79 N           0.3280   14.7104   -0.3489 N.ar    1  LIG1       -0.2359
     80 H           3.0097   17.5655   -0.2654 H       1  LIG1        0.0644
     81 C           1.9591   13.1727   -0.3416 C.1     1  LIG1       -0.0491
     82 C           2.2479   12.0068   -0.3523 C.1     1  LIG1       -0.1124
     83 H           2.5052   10.9682   -0.3619 H       1  LIG1        0.1232
     84 N           0.4817   18.3018   -0.2979 N.pl3   1  LIG1       -0.3563
     85 H           1.1488   18.8806   -0.7669 H       1  LIG1        0.1424
     86 H          -0.3995   18.3615   -0.7670 H       1  LIG1        0.1424
     87 C          -2.2253   15.1754   -0.3876 C.ar    1  LIG1        0.0475
     88 C          -1.3086   16.2422   -0.3563 C.ar    1  LIG1        0.0243
     89 C          -1.8045   17.5472   -0.3457 C.ar    1  LIG1       -0.0339
     90 C          -3.1867   17.7410   -0.3667 C.ar    1  LIG1        0.0434
     91 C          -4.0230   16.6100   -0.3977 C.ar    1  LIG1        0.0433
     92 N          -3.5617   15.3442   -0.4082 N.ar    1  LIG1       -0.2583
     93 H          -1.1188   18.4060   -0.3225 H       1  LIG1        0.0637
     94 H          -5.3164   16.7391   -0.4180 H       1  LIG1        0.0842
     95 C          -1.8120   13.9425   -0.3985 C.3     1  LIG1       -0.0217
     96 H          -0.8690   13.8781    0.1030 H       1  LIG1        0.0293
     97 H          -1.7013   13.6124   -1.4103 H       1  LIG1        0.0293
     98 H          -2.5257   13.3227    0.1029 H       1  LIG1        0.0293
     99 C          -3.6979   18.9363   -0.3582 C.1     1  LIG1       -0.0681
    100 C          -4.1703   20.0407   -0.3503 C.1     1  LIG1       -0.1139
    101 H          -4.5911   21.0244   -0.3432 H       1  LIG1        0.1232
@<TRIPOS>BOND
     1    97    95    1
     2    61    59    1
     3    16    14    1
     4    12    10    1
     5    86    84    1
     6    85    84    1
     7    49    47    1
     8    48    47    1
     9    94    91    1
    10    92    91   ar
    11    92    87   ar
    12    95    87    1
    13    95    98    1
    14    95    96    1
    15    91    90   ar
    16    87    88   ar
    17    90    99    1
    18    90    89   ar
    19    83    82    1
    20    99   100    3
    21    88    89   ar
    22    88    78    1
    23    82    81    3
    24   100   101    1
    25    79    78   ar
    26    79    74   ar
    27    89    93    1
    28    81    74    1
    29    78    77   ar
    30    74    75   ar
    31    73    72    1
    32    77    84    1
    33    77    76   ar
    34    72    65    1
    35    75    76   ar
    36    75    66    1
    37    76    80    1
    38    65    66   ar
    39    65    64   ar
    40    66    67   ar
    41    64    69    1
    42    64    63   ar
    43    59    56    1
    44    59    62    1
    45    59    60    1
    46    67    68    1
    47    67    63   ar
    48    69    70    3
    49    70    71    1
    50    63    53    1
    51    56    53   ar
    52    56    55   ar
    53    53    51   ar
    54    57    55    1
    55    55    52   ar
    56    51    54    1
    57    51    50   ar
    58    52    50   ar
    59    52    42    1
    60    50    58    1
    61    42    43    1
    62    42    41    2
    63    47    41    1
    64    43    39    1
    65    41    40    1
    66    36    35    1
    67    39    40    1
    68    39    31    1
    69    40    44    2
    70    35    34    3
    71    32    31   ar
    72    32    27   ar
    73    34    27    1
    74    31    30   ar
    75    44    45    2
    76    27    28   ar
    77    45    46    1
    78    45    37    1
    79    30    38    1
    80    30    29   ar
    81    28    29   ar
    82    28    21    1
    83    38    37    1
    84    29    33    1
    85    22    21   ar
    86    22    18   ar
    87    21    20   ar
    88    14     7    1
    89    14    17    1
    90    14    15    1
    91     7     4   ar
    92     7     6   ar
    93    18     4    1
    94    18    19   ar
    95     4     2   ar
    96     6     8    1
    97     6     3   ar
    98     1     2   ar
    99     1     3   ar
   100     1    10    1
   101     2     5    1
   102     3     9    1
   103    10    13    1
   104    10    11    1
   105    20    26    1
   106    20    19   ar
   107    19    23    1
   108    23    24    3
   109    24    25    1
