@<TRIPOS>MOLECULE
mol_data/noopt/geoms/mol2/4ii12aa12af12ed13la-6al6de-12fd.out
 89 96 0 0 0
SMALL
GASTEIGER

@<TRIPOS>ATOM
      1 C           0.0509    0.0309    0.0002 C.3     1  LIG1        0.0193
      2 C           1.4592    0.0309    0.0002 C.2     1  LIG1       -0.0681
      3 C          -0.6045    1.2792    0.0002 C.3     1  LIG1        0.0746
      4 C           2.1849    1.2200   -0.0004 C.2     1  LIG1       -0.0008
      5 H           1.9850   -0.9213    0.0004 H       1  LIG1        0.0582
      6 C           0.1195    2.4666   -0.0004 C.3     1  LIG1        0.0459
      7 C           1.5181    2.4458   -0.0008 C.3     1  LIG1        0.0167
      8 H          -0.4090    3.4165   -0.0003 H       1  LIG1        0.0495
      9 H          -1.9035    1.3287    0.0016 H       1  LIG1        0.0547
     10 C          -0.5710   -1.1111    0.0005 C.3     1  LIG1       -0.0534
     11 H           0.0257   -1.8420    0.5050 H       1  LIG1        0.0239
     12 H          -0.7416   -1.4245   -1.0083 H       1  LIG1        0.0239
     13 H          -1.5088   -1.0063    0.5049 H       1  LIG1        0.0239
     14 C           2.1897    3.5592   -0.0012 C.3     1  LIG1       -0.0538
     15 H           1.6260    4.3160    0.5031 H       1  LIG1        0.0239
     16 H           2.3738    3.8644   -1.0102 H       1  LIG1        0.0239
     17 H           3.1221    3.4135    0.5030 H       1  LIG1        0.0239
     18 C           3.4844    1.1831   -0.0005 C.ar    1  LIG1        0.1322
     19 C           4.4399    0.1881   -0.0006 C.ar    1  LIG1       -0.0155
     20 C           5.7279    0.8499   -0.0007 C.ar    1  LIG1       -0.0122
     21 C           5.4738    2.2061   -0.0008 C.ar    1  LIG1        0.1707
     22 O           4.0977    2.4367   -0.0007 O.2     1  LIG1       -0.4520
     23 H           4.2495   -1.0979   -0.0005 H       1  LIG1        0.0655
     24 H           6.8846    0.2566   -0.0008 H       1  LIG1        0.0657
     25 C           6.1999    3.2844   -0.0008 C.ar    1  LIG1        0.1744
     26 C           7.5515    3.5599    0.0139 C.ar    1  LIG1        0.0296
     27 C           7.6810    5.0021    0.0032 C.ar    1  LIG1        0.1665
     28 C           6.3993    5.5125   -0.0175 C.ar    1  LIG1        0.2130
     29 O           5.4687    4.4730   -0.0205 O.2     1  LIG1       -0.4448
     30 H           8.5363    2.7115    0.0338 H       1  LIG1        0.0693
     31 O           8.8009    5.6624    0.0117 O.3     1  LIG1       -0.5031
     32 H           8.6173    6.6046    0.0138 H       1  LIG1        0.2923
     33 C           5.8764    6.7026   -0.0343 C.ar    1  LIG1        0.1899
     34 C           6.3665    7.9920   -0.0470 C.ar    1  LIG1        0.0794
     35 C           5.2171    8.8726   -0.0635 C.ar    1  LIG1        0.0417
     36 C           4.1003    8.0624   -0.0598 C.ar    1  LIG1        0.1618
     37 O           4.4809    6.7202   -0.0420 O.2     1  LIG1       -0.4484
     38 C           7.6102    8.3705   -0.0449 C.1     1  LIG1       -0.0654
     39 C           8.7594    8.7203   -0.0430 C.1     1  LIG1       -0.1138
     40 H           9.7830    9.0318   -0.0413 H       1  LIG1        0.1232
     41 N           5.2944   11.3178   -0.0920 N.3     1  LIG1       -0.2406
     42 C           5.2582   10.1718   -0.0786 C.3     1  LIG1        0.1142
     43 C           2.8149    8.2568   -0.0688 C.ar    1  LIG1        0.1251
     44 C           2.0976    9.4115   -0.0752 C.ar    1  LIG1        0.1494
     45 C           0.7111    9.0537   -0.0830 C.ar    1  LIG1        0.0062
     46 C           0.6421    7.6960   -0.0828 C.ar    1  LIG1        0.0521
     47 N           1.9278    7.2041   -0.0736 N.ar    1  LIG1       -0.3488
     48 H           2.1762    6.2417   -0.0714 H       1  LIG1        0.1661
     49 O           2.5843   10.6170   -0.0731 O.3     1  LIG1       -0.4864
     50 C           4.0130   10.5549   -0.0723 C.3     1  LIG1        0.1236
     51 H           4.4132   11.5472   -0.0707 H       1  LIG1        0.1417
     52 H           4.3469   10.0342    0.8008 H       1  LIG1        0.0731
     53 H           4.3479   10.0367   -0.9465 H       1  LIG1        0.0731
     54 H          -0.2983    9.8729   -0.0897 H       1  LIG1        0.0676
     55 C          -0.2126    5.5079   -0.0914 C.ar    1  LIG1        0.0376
     56 C          -0.3886    6.9037   -0.0884 C.ar    1  LIG1        0.0200
     57 C          -1.6890    7.4118   -0.0914 C.ar    1  LIG1       -0.0073
     58 C          -2.7601    6.5166   -0.0974 C.ar    1  LIG1        0.1466
     59 C          -2.4826    5.1373   -0.1002 C.ar    1  LIG1        0.1143
     60 N          -1.2344    4.6300   -0.0972 N.ar    1  LIG1       -0.2506
     61 H          -1.8658    8.4967   -0.0903 H       1  LIG1        0.0662
     62 H           0.9785    4.9872   -0.0887 H       1  LIG1        0.0836
     63 O          -3.9894    6.9396   -0.1006 O.3     1  LIG1       -0.4929
     64 C          -4.0022    8.3696   -0.1018 C.3     1  LIG1        0.0789
     65 H          -5.0141    8.7173   -0.1046 H       1  LIG1        0.0660
     66 H          -3.5031    8.7315    0.7728 H       1  LIG1        0.0660
     67 H          -3.4988    8.7300   -0.9745 H       1  LIG1        0.0660
     68 C          -3.1583    2.8877   -0.1296 C.ar    1  LIG1        0.0704
     69 C          -3.4461    4.2646   -0.1056 C.ar    1  LIG1        0.0280
     70 C          -4.7831    4.6661   -0.0877 C.ar    1  LIG1       -0.0331
     71 C          -5.7787    3.6876   -0.0944 C.ar    1  LIG1        0.0544
     72 C          -5.3910    2.3353   -0.1191 C.ar    1  LIG1        0.1253
     73 N          -4.1061    1.9303   -0.1365 N.ar    1  LIG1       -0.2448
     74 H          -5.0467    5.7331   -0.0697 H       1  LIG1        0.0638
     75 N          -0.8450    2.0919   -0.1621 N.3     1  LIG1       -0.2761
     76 C          -1.9291    2.4648   -0.1469 C.3     1  LIG1        0.0756
     77 C          -7.0379    4.0100   -0.0786 C.1     1  LIG1       -0.0674
     78 C          -8.2015    4.3079   -0.0639 C.1     1  LIG1       -0.1138
     79 H          -9.2380    4.5732   -0.0508 H       1  LIG1        0.1232
     80 C          -6.2811    1.3879   -0.1262 C.ar    1  LIG1        0.1966
     81 C          -7.6595    1.3336   -0.1315 C.ar    1  LIG1        0.1820
     82 C          -8.0194   -0.0690   -0.1384 C.ar    1  LIG1        0.1315
     83 C          -6.8364   -0.7791   -0.1369 C.ar    1  LIG1        0.1137
     84 O          -5.7506    0.0971   -0.1295 O.2     1  LIG1       -0.4562
     85 H          -6.5117   -2.0379   -0.1407 H       1  LIG1        0.1044
     86 O          -8.4950    2.3296   -0.1306 O.3     1  LIG1       -0.5023
     87 H          -9.3943    1.9934   -0.1304 H       1  LIG1        0.2923
     88 N         -10.2995   -0.9561   -0.1505 N.1     1  LIG1       -0.1906
     89 C          -9.2309   -0.5404   -0.1448 C.1     1  LIG1        0.1060
@<TRIPOS>BOND
     1    16    14    1
     2    12    10    1
     3    67    64    1
     4    53    50    1
     5    75    76    1
     6    75     6    1
     7    75     3    1
     8    88    89    3
     9    76    68    1
    10    76     9    1
    11    89    82    1
    12    85    83    1
    13    82    83   ar
    14    82    81   ar
    15    83    84   ar
    16    73    68   ar
    17    73    72   ar
    18    81    86    1
    19    81    80   ar
    20    86    87    1
    21    68    69   ar
    22    84    80   ar
    23    80    72    1
    24    72    71   ar
    25    69    59    1
    26    69    70   ar
    27    65    64    1
    28    64    63    1
    29    64    66    1
    30    63    58    1
    31    59    58   ar
    32    59    60   ar
    33    58    57   ar
    34    60    55   ar
    35    71    70   ar
    36    71    77    1
    37    41    42    1
    38    41    51    1
    39    57    61    1
    40    57    56   ar
    41    55    62    1
    42    55    56   ar
    43    54    45    1
    44    56    46    1
    45    70    74    1
    46    45    46   ar
    47    45    44   ar
    48    46    47   ar
    49    42    35    1
    50    77    78    3
    51    44    49    1
    52    44    43   ar
    53    47    48    1
    54    47    43   ar
    55    49    50    1
    56    50    52    1
    57    43    36    1
    58    78    79    1
    59    35    36   ar
    60    35    34   ar
    61    36    37   ar
    62    34    38    1
    63    34    33   ar
    64    38    39    3
    65    39    40    1
    66    37    33   ar
    67    33    28    1
    68    29    28   ar
    69    29    25   ar
    70    28    27   ar
    71    14     7    1
    72    14    17    1
    73    14    15    1
    74    25    21    1
    75    25    26   ar
    76     7     4    1
    77    24    20    1
    78    21    22   ar
    79    21    20   ar
    80    22    18   ar
    81    20    19   ar
    82    19    18   ar
    83    19    23    1
    84    18     4    1
    85     4     2    2
    86     6     8    1
    87     2     1    1
    88     2     5    1
    89     3     1    1
    90     1    10    1
    91    10    13    1
    92    10    11    1
    93    27    31    1
    94    27    26   ar
    95    31    32    1
    96    26    30    1
