@<TRIPOS>MOLECULE
mol_data/noopt/geoms/mol2/4ii4ii-4ii-4ii.out
 66 59 0 0 0
SMALL
GASTEIGER

@<TRIPOS>ATOM
      1 C           0.0509    0.0309    0.0002 C.ar    1  LIG1       -0.0498
      2 C           1.4592    0.0309    0.0002 C.ar    1  LIG1       -0.0505
      3 C          -0.6045    1.2792    0.0002 C.ar    1  LIG1       -0.0582
      4 C           2.1849    1.2200   -0.0004 C.ar    1  LIG1       -0.0093
      5 H           1.9850   -0.9213    0.0004 H       1  LIG1        0.0626
      6 C           0.1195    2.4666   -0.0004 C.ar    1  LIG1       -0.0532
      7 C           1.5181    2.4458   -0.0008 C.ar    1  LIG1       -0.0096
      8 H          -0.4090    3.4165   -0.0003 H       1  LIG1        0.0624
      9 H          -1.9035    1.3287    0.0016 H       1  LIG1        0.0620
     10 C          -0.5710   -1.1111    0.0005 C.3     1  LIG1       -0.0397
     11 H           0.0257   -1.8420    0.5050 H       1  LIG1        0.0278
     12 H          -0.7416   -1.4245   -1.0083 H       1  LIG1        0.0278
     13 H          -1.5088   -1.0063    0.5049 H       1  LIG1        0.0278
     14 C           2.1897    3.5592   -0.0012 C.3     2  LIG2       -0.0309
     15 H           1.6260    4.3160    0.5031 H       3  UNK3        0.0000
     16 H           2.3738    3.8644   -1.0102 H       4  UNK4        0.0000
     17 H           3.1221    3.4135    0.5030 H       2  LIG2        0.0265
     18 C           4.2212    2.3851    0.0002 C.ar    1  LIG1       -0.0090
     19 C           5.6264    2.2916    0.0016 C.ar    1  LIG1       -0.0454
     20 C           3.4843    1.1831   -0.0005 C.ar    1  LIG1       -0.0093
     21 C           6.2715    1.0569    0.0017 C.ar    1  LIG1       -0.0141
     22 H           6.2143    3.2067    0.0024 H       1  LIG1        0.0630
     23 C           4.1278   -0.0498   -0.0004 C.ar    1  LIG1       -0.0499
     24 C           5.5247   -0.1219    0.0006 C.ar    1  LIG1       -0.0421
     25 H           3.5374   -0.9625   -0.0009 H       1  LIG1        0.0627
     26 C           3.6765    3.5659   -0.0001 C.3     5  LIG5       -0.0531
     27 H           2.7338    3.5239    0.5043 H       1  LIG1        0.0309
     28 H           3.5272    3.8895   -1.0090 H       6  UNK6        0.0000
     29 H           4.3204    4.2558    0.5042 H       2  LIG2        0.0265
     30 C           6.1209   -1.2775    0.0008 C.3     1  LIG1       -0.0391
     31 H           7.0608   -1.1938    0.5053 H       1  LIG1        0.0278
     32 H           6.2846   -1.5946   -1.0080 H       1  LIG1        0.0278
     33 H           5.5080   -1.9949    0.5052 H       1  LIG1        0.0278
     34 C           8.3190    2.2022    0.0043 C.ar    1  LIG1       -0.0421
     35 C           9.7232    2.0950    0.0071 C.ar    1  LIG1       -0.0499
     36 C           7.5705    1.0074    0.0029 C.ar    1  LIG1       -0.0141
     37 C          10.3563    0.8541    0.0079 C.ar    1  LIG1       -0.0093
     38 H          10.3199    3.0044    0.0084 H       1  LIG1        0.0627
     39 C           8.2020   -0.2317    0.0037 C.ar    1  LIG1       -0.0454
     40 C           9.5982   -0.3174    0.0061 C.ar    1  LIG1       -0.0090
     41 H           7.6028   -1.1386    0.0026 H       1  LIG1        0.0630
     42 C           7.7858    3.3882    0.0034 C.3     1  LIG1       -0.0391
     43 H           6.8426    3.3556    0.5076 H       1  LIG1        0.0278
     44 H           7.6398    3.7128   -1.0057 H       1  LIG1        0.0278
     45 H           8.4363    4.0720    0.5075 H       1  LIG1        0.0278
     46 C          10.1831   -1.4787    0.0069 C.3     7  LIG7       -0.0531
     47 H          11.1237   -1.4039    0.5116 H       4  UNK4        0.0309
     48 H          10.3439   -1.7978   -1.0017 H       8  UNK8        0.0000
     49 H           9.5631   -2.1899    0.5115 H       3  UNK3        0.0265
     50 C          12.2980   -0.4626    0.0125 C.ar    1  LIG1       -0.0096
     51 C          13.7062   -0.4762    0.0167 C.ar    1  LIG1       -0.0532
     52 C          11.6548    0.7920    0.0104 C.ar    1  LIG1       -0.0093
     53 C          14.4434    0.7058    0.0181 C.ar    1  LIG1       -0.0582
     54 H          14.2228   -1.4335    0.0186 H       1  LIG1        0.0624
     55 C          12.3902    1.9724    0.0118 C.ar    1  LIG1       -0.0505
     56 C          13.7886    1.9380    0.0156 C.ar    1  LIG1       -0.0498
     57 H          11.8710    2.9273    0.0102 H       1  LIG1        0.0626
     58 H          15.7425    0.6563    0.0219 H       1  LIG1        0.0620
     59 C          11.6651   -1.5984    0.0110 C.3     9  LIG9       -0.0309
     60 H          12.2543   -2.3357    0.5151 H      10  UNK10       0.0000
     61 H          11.4921   -1.9091   -0.9982 H      11  UNK11       0.0000
     62 H          10.7280   -1.4852    0.5150 H       3  UNK3        0.0265
     63 C          14.4710    3.0448    0.0171 C.3     1  LIG1       -0.0397
     64 H          13.9142    3.8065    0.5219 H       1  LIG1        0.0278
     65 H          14.6587    3.3495   -0.9914 H       1  LIG1        0.0278
     66 H          15.4015    2.8894    0.5219 H       1  LIG1        0.0278
@<TRIPOS>BOND
     1    12    10    1
     2    32    30    1
     3    44    42    1
     4    65    63    1
     5    14    27    1
     6    25    23    1
     7     7     6   ar
     8     7     4   ar
     9    20    23   ar
    10    20     4    1
    11    20    18   ar
    12    23    24   ar
    13     6     8    1
    14     6     3   ar
    15     4     2   ar
    16    26    17    1
    17    26    29    1
    18    18    19   ar
    19     1     3   ar
    20     1     2   ar
    21     1    10    1
    22     3     9    1
    23     2     5    1
    24    10    13    1
    25    10    11    1
    26    24    30    1
    27    24    21   ar
    28    30    33    1
    29    30    31    1
    30    19    21   ar
    31    19    22    1
    32    21    36    1
    33    41    39    1
    34    36    39   ar
    35    36    34   ar
    36    42    34    1
    37    42    45    1
    38    42    43    1
    39    39    40   ar
    40    34    35   ar
    41    40    37   ar
    42    46    49    1
    43    46    62    1
    44    35    37   ar
    45    35    38    1
    46    37    52    1
    47    57    55    1
    48    52    55   ar
    49    52    50   ar
    50    59    47    1
    51    55    56   ar
    52    50    51   ar
    53    56    63    1
    54    56    53   ar
    55    51    53   ar
    56    51    54    1
    57    63    66    1
    58    63    64    1
    59    53    58    1
