@<TRIPOS>MOLECULE
mol_data/noopt/geoms/mol2/4ii4ii-.out
 34 30 0 0 0
SMALL
GASTEIGER

@<TRIPOS>ATOM
      1 C           0.0509    0.0309    0.0002 C.ar    1  LIG1       -0.0498
      2 C           1.4592    0.0309    0.0002 C.ar    1  LIG1       -0.0505
      3 C          -0.6045    1.2792    0.0002 C.ar    1  LIG1       -0.0582
      4 C           2.1849    1.2200   -0.0004 C.ar    1  LIG1       -0.0093
      5 H           1.9850   -0.9213    0.0004 H       1  LIG1        0.0626
      6 C           0.1195    2.4666   -0.0004 C.ar    1  LIG1       -0.0532
      7 C           1.5181    2.4458   -0.0008 C.ar    1  LIG1       -0.0096
      8 H          -0.4090    3.4165   -0.0003 H       1  LIG1        0.0624
      9 H          -1.9035    1.3287    0.0016 H       1  LIG1        0.0620
     10 C          -0.5710   -1.1111    0.0005 C.3     1  LIG1       -0.0397
     11 H           0.0257   -1.8420    0.5050 H       1  LIG1        0.0278
     12 H          -0.7416   -1.4245   -1.0083 H       1  LIG1        0.0278
     13 H          -1.5088   -1.0063    0.5049 H       1  LIG1        0.0278
     14 C           2.1897    3.5592   -0.0012 C.3     2  LIG2       -0.0309
     15 H           1.6260    4.3160    0.5031 H       3  UNK3        0.0000
     16 H           2.3738    3.8644   -1.0102 H       4  UNK4        0.0000
     17 H           3.1221    3.4135    0.5030 H       2  LIG2        0.0265
     18 C           4.2212    2.3851    0.0002 C.ar    1  LIG1       -0.0096
     19 C           5.6264    2.2916    0.0016 C.ar    1  LIG1       -0.0532
     20 C           3.4843    1.1831   -0.0005 C.ar    1  LIG1       -0.0093
     21 C           6.2715    1.0569    0.0017 C.ar    1  LIG1       -0.0582
     22 H           6.2143    3.2067    0.0024 H       1  LIG1        0.0624
     23 C           4.1278   -0.0498   -0.0004 C.ar    1  LIG1       -0.0505
     24 C           5.5247   -0.1219    0.0006 C.ar    1  LIG1       -0.0498
     25 H           3.5374   -0.9625   -0.0009 H       1  LIG1        0.0626
     26 H           7.5706    1.0074    0.0029 H       1  LIG1        0.0620
     27 C           3.6765    3.5659   -0.0001 C.3     5  LIG5       -0.0531
     28 H           2.7338    3.5239    0.5043 H       1  LIG1        0.0309
     29 H           3.5272    3.8895   -1.0090 H       6  UNK6        0.0000
     30 H           4.3204    4.2558    0.5042 H       2  LIG2        0.0265
     31 C           6.1209   -1.2775    0.0008 C.3     1  LIG1       -0.0397
     32 H           7.0608   -1.1938    0.5053 H       1  LIG1        0.0278
     33 H           6.2846   -1.5946   -1.0080 H       1  LIG1        0.0278
     34 H           5.5080   -1.9949    0.5052 H       1  LIG1        0.0278
@<TRIPOS>BOND
     1    12    10    1
     2    33    31    1
     3    14    28    1
     4    25    23    1
     5     7     4   ar
     6     7     6   ar
     7    20    23   ar
     8    20     4    1
     9    20    18   ar
    10    23    24   ar
    11     4     2   ar
    12     6     8    1
    13     6     3   ar
    14    27    17    1
    15    27    30    1
    16    18    19   ar
    17     1     2   ar
    18     1     3   ar
    19     1    10    1
    20     2     5    1
    21     3     9    1
    22    10    13    1
    23    10    11    1
    24    24    31    1
    25    24    21   ar
    26    31    34    1
    27    31    32    1
    28    19    21   ar
    29    19    22    1
    30    21    26    1
