@<TRIPOS>MOLECULE
mol_data/noopt/geoms/mol2/4ii4ii-4ii4ii-.out
 66 54 0 0 0
SMALL
GASTEIGER

@<TRIPOS>ATOM
      1 C           0.0509    0.0309    0.0002 C.ar    1  LIG1       -0.0498
      2 C           1.4592    0.0309    0.0002 C.ar    1  LIG1       -0.0505
      3 C          -0.6045    1.2792    0.0002 C.ar    1  LIG1       -0.0582
      4 C           2.1849    1.2200   -0.0004 C.ar    1  LIG1       -0.0093
      5 H           1.9850   -0.9213    0.0004 H       1  LIG1        0.0626
      6 C           0.1195    2.4666   -0.0004 C.ar    1  LIG1       -0.0532
      7 C           1.5181    2.4458   -0.0008 C.ar    1  LIG1       -0.0096
      8 H          -0.4090    3.4165   -0.0003 H       1  LIG1        0.0624
      9 H          -1.9035    1.3287    0.0016 H       1  LIG1        0.0620
     10 C          -0.5710   -1.1111    0.0005 C.3     1  LIG1       -0.0397
     11 H           0.0257   -1.8420    0.5050 H       1  LIG1        0.0278
     12 H          -0.7416   -1.4245   -1.0083 H       1  LIG1        0.0278
     13 H          -1.5088   -1.0063    0.5049 H       1  LIG1        0.0278
     14 C           2.1897    3.5592   -0.0012 C.3     2  LIG2       -0.0309
     15 H           1.6260    4.3160    0.5031 H       3  UNK3        0.0000
     16 H           2.3738    3.8644   -1.0102 H       4  UNK4        0.0000
     17 H           3.1221    3.4135    0.5030 H       2  LIG2        0.0265
     18 C           4.2212    2.3851    0.0002 C.ar    1  LIG1       -0.0089
     19 C           5.6264    2.2916    0.0016 C.ar    1  LIG1       -0.0451
     20 C           3.4843    1.1831   -0.0005 C.ar    1  LIG1       -0.0090
     21 C           6.2715    1.0569    0.0017 C.ar    1  LIG1       -0.0089
     22 H           6.2143    3.2067    0.0024 H       1  LIG1        0.0630
     23 C           4.1278   -0.0498   -0.0004 C.ar    1  LIG1       -0.0451
     24 C           5.5247   -0.1219    0.0006 C.ar    1  LIG1       -0.0089
     25 H           3.5374   -0.9625   -0.0009 H       1  LIG1        0.0630
     26 C           3.6765    3.5659   -0.0001 C.3     5  LIG5       -0.0531
     27 H           2.7338    3.5239    0.5043 H       1  LIG1        0.0309
     28 H           3.5272    3.8895   -1.0090 H       6  UNK6        0.0000
     29 H           4.3204    4.2558    0.5042 H       2  LIG2        0.0265
     30 C           6.1209   -1.2775    0.0008 C.3     7  LIG7       -0.0531
     31 H           7.0608   -1.1938    0.5053 H       4  UNK4        0.0309
     32 H           6.2846   -1.5946   -1.0080 H       8  UNK8        0.0000
     33 H           5.5080   -1.9949    0.5052 H       3  UNK3        0.0265
     34 C           8.2259   -0.2409    0.0043 C.ar    1  LIG1       -0.0089
     35 C           9.6342   -0.2409    0.0071 C.ar    1  LIG1       -0.0451
     36 C           7.5705    1.0074    0.0029 C.ar    1  LIG1       -0.0089
     37 C          10.3599    0.9482    0.0079 C.ar    1  LIG1       -0.0090
     38 H          10.1600   -1.1931    0.0084 H       1  LIG1        0.0630
     39 C           8.2945    2.1948    0.0036 C.ar    1  LIG1       -0.0451
     40 C           9.6931    2.1740    0.0060 C.ar    1  LIG1       -0.0089
     41 H           7.7660    3.1447    0.0026 H       1  LIG1        0.0630
     42 C           7.6040   -1.3829    0.0034 C.3     9  LIG9       -0.0309
     43 H           8.2005   -2.1142    0.5076 H      10  UNK10       0.0000
     44 H           7.4338   -1.6956   -1.0056 H      11  UNK11       0.0000
     45 H           6.6660   -1.2785    0.5076 H       3  UNK3        0.0265
     46 C          10.3647    3.2874    0.0069 C.3    12  LIG12      -0.0309
     47 H           9.8007    4.0438    0.5116 H      13  UNK13       0.0000
     48 H          10.5493    3.5934   -1.0017 H      14  UNK14       0.0000
     49 H          11.2969    3.1412    0.5115 H       6  UNK6        0.0265
     50 C          12.3962    2.1133    0.0125 C.ar    1  LIG1       -0.0096
     51 C          13.8014    2.0197    0.0167 C.ar    1  LIG1       -0.0532
     52 C          11.6593    0.9113    0.0104 C.ar    1  LIG1       -0.0093
     53 C          14.4465    0.7851    0.0181 C.ar    1  LIG1       -0.0582
     54 H          14.3892    2.9349    0.0186 H       1  LIG1        0.0624
     55 C          12.3028   -0.3216    0.0118 C.ar    1  LIG1       -0.0505
     56 C          13.6997   -0.3937    0.0156 C.ar    1  LIG1       -0.0498
     57 H          11.7124   -1.2343    0.0102 H       1  LIG1        0.0626
     58 H          15.7455    0.7356    0.0219 H       1  LIG1        0.0620
     59 C          11.8515    3.2940    0.0110 C.3    15  LIG15      -0.0531
     60 H          10.9086    3.2525    0.5151 H       5  LIG5        0.0309
     61 H          11.7025    3.6169   -0.9982 H      16  UNK16       0.0000
     62 H          12.4952    3.9843    0.5150 H       6  UNK6        0.0265
     63 C          14.2959   -1.5493    0.0171 C.3     1  LIG1       -0.0397
     64 H          15.2356   -1.4652    0.5219 H       1  LIG1        0.0278
     65 H          14.4600   -1.8673   -0.9913 H       1  LIG1        0.0278
     66 H          13.6827   -2.2663    0.5219 H       1  LIG1        0.0278
@<TRIPOS>BOND
     1    12    10    1
     2    65    63    1
     3    14    27    1
     4    25    23    1
     5     7     6   ar
     6     7     4   ar
     7    20    23   ar
     8    20     4    1
     9    20    18   ar
    10    23    24   ar
    11     6     8    1
    12     6     3   ar
    13     4     2   ar
    14    26    17    1
    15    26    29    1
    16    18    19   ar
    17     1     3   ar
    18     1     2   ar
    19     1    10    1
    20     3     9    1
    21     2     5    1
    22    10    13    1
    23    10    11    1
    24    24    21   ar
    25    30    33    1
    26    30    45    1
    27    19    21   ar
    28    19    22    1
    29    21    36    1
    30    41    39    1
    31    36    39   ar
    32    36    34   ar
    33    42    31    1
    34    39    40   ar
    35    34    35   ar
    36    40    37   ar
    37    46    60    1
    38    35    37   ar
    39    35    38    1
    40    37    52    1
    41    57    55    1
    42    52    55   ar
    43    52    50   ar
    44    59    49    1
    45    59    62    1
    46    55    56   ar
    47    50    51   ar
    48    56    63    1
    49    56    53   ar
    50    51    53   ar
    51    51    54    1
    52    63    66    1
    53    63    64    1
    54    53    58    1
