@<TRIPOS>MOLECULE
mol_data/noopt/geoms/mol2/4ii4ii4ii4ii.out
 66 69 0 0 0
SMALL
GASTEIGER

@<TRIPOS>ATOM
      1 C           0.0509    0.0309    0.0002 C.ar    1  LIG1       -0.0499
      2 C           1.4592    0.0309    0.0002 C.ar    1  LIG1       -0.0509
      3 C          -0.6045    1.2792    0.0002 C.ar    1  LIG1       -0.0586
      4 C           2.1849    1.2200   -0.0004 C.ar    1  LIG1       -0.0145
      5 H           1.9850   -0.9213    0.0004 H       1  LIG1        0.0626
      6 C           0.1195    2.4666   -0.0004 C.ar    1  LIG1       -0.0580
      7 C           1.5181    2.4458   -0.0008 C.ar    1  LIG1       -0.0427
      8 H          -0.4090    3.4165   -0.0003 H       1  LIG1        0.0620
      9 H          -1.9035    1.3287    0.0016 H       1  LIG1        0.0620
     10 C          -0.5710   -1.1111    0.0005 C.3     1  LIG1       -0.0397
     11 H           0.0257   -1.8420    0.5050 H       1  LIG1        0.0278
     12 H          -0.7416   -1.4245   -1.0083 H       1  LIG1        0.0278
     13 H          -1.5088   -1.0063    0.5049 H       1  LIG1        0.0278
     14 C           2.1897    3.5592   -0.0012 C.3     1  LIG1       -0.0391
     15 H           1.6260    4.3160    0.5031 H       1  LIG1        0.0278
     16 H           2.3738    3.8644   -1.0102 H       1  LIG1        0.0278
     17 H           3.1221    3.4135    0.5030 H       1  LIG1        0.0278
     18 C           4.1518   -0.0588    0.0002 C.ar    1  LIG1       -0.0421
     19 C           5.5600   -0.0451    0.0016 C.ar    1  LIG1       -0.0503
     20 C           3.4843    1.1831   -0.0005 C.ar    1  LIG1       -0.0144
     21 C           6.2742    1.1510    0.0017 C.ar    1  LIG1       -0.0144
     22 H           6.0950   -0.9922    0.0024 H       1  LIG1        0.0627
     23 C           4.1968    2.3775   -0.0004 C.ar    1  LIG1       -0.0503
     24 C           5.5955    2.3702    0.0006 C.ar    1  LIG1       -0.0421
     25 H           3.6591    3.3222   -0.0009 H       1  LIG1        0.0627
     26 C           3.5410   -1.2067   -0.0001 C.3     1  LIG1       -0.0391
     27 H           4.1447   -1.9321    0.5043 H       1  LIG1        0.0278
     28 H           3.3736   -1.5215   -1.0090 H       1  LIG1        0.0278
     29 H           2.6021   -1.1113    0.5042 H       1  LIG1        0.0278
     30 C           6.2563    3.4901    0.0008 C.3     1  LIG1       -0.0391
     31 H           5.6851    4.2412    0.5053 H       1  LIG1        0.0278
     32 H           6.4376    3.7975   -1.0080 H       1  LIG1        0.0278
     33 H           7.1900    3.3532    0.5052 H       1  LIG1        0.0278
     34 C           8.2534   -0.1087    0.0043 C.ar    1  LIG1       -0.0421
     35 C           9.6614   -0.0814    0.0071 C.ar    1  LIG1       -0.0503
     36 C           7.5739    1.1267    0.0029 C.ar    1  LIG1       -0.0144
     37 C          10.3639    1.1216    0.0079 C.ar    1  LIG1       -0.0144
     38 H          10.2056   -1.0232    0.0084 H       1  LIG1        0.0627
     39 C           8.2747    2.3279    0.0036 C.ar    1  LIG1       -0.0503
     40 C           9.6734    2.3342    0.0060 C.ar    1  LIG1       -0.0421
     41 H           7.7279    3.2674    0.0026 H       1  LIG1        0.0627
     42 C           7.6537   -1.2625    0.0034 C.3     1  LIG1       -0.0391
     43 H           8.2643   -1.9821    0.5076 H       1  LIG1        0.0278
     44 H           7.4896   -1.5784   -1.0056 H       1  LIG1        0.0278
     45 H           6.7139   -1.1763    0.5076 H       1  LIG1        0.0278
     46 C          10.3234    3.4605    0.0069 C.3     1  LIG1       -0.0391
     47 H           9.7448    4.2058    0.5116 H       1  LIG1        0.0278
     48 H          10.5019    3.7700   -1.0017 H       1  LIG1        0.0278
     49 H          11.2582    3.3324    0.5115 H       1  LIG1        0.0278
     50 C          12.3552   -0.1188    0.0125 C.ar    1  LIG1       -0.0427
     51 C          13.7629   -0.0778    0.0167 C.ar    1  LIG1       -0.0580
     52 C          11.6638    1.1099    0.0104 C.ar    1  LIG1       -0.0145
     53 C          14.4537    1.1319    0.0181 C.ar    1  LIG1       -0.0586
     54 H          14.3162   -1.0143    0.0186 H       1  LIG1        0.0620
     55 C          12.3529    2.3179    0.0118 C.ar    1  LIG1       -0.0509
     56 C          13.7515    2.3378    0.0156 C.ar    1  LIG1       -0.0499
     57 H          11.7970    3.2520    0.0102 H       1  LIG1        0.0626
     58 H          15.7537    1.1328    0.0219 H       1  LIG1        0.0620
     59 C          11.7668   -1.2784    0.0110 C.3     1  LIG1       -0.0391
     60 H          12.3842   -1.9923    0.5151 H       1  LIG1        0.0278
     61 H          11.6060   -1.5955   -0.9982 H       1  LIG1        0.0278
     62 H          10.8261   -1.2015    0.5150 H       1  LIG1        0.0278
     63 C          14.3905    3.4703    0.0171 C.3     1  LIG1       -0.0397
     64 H          13.8046    4.2097    0.5219 H       1  LIG1        0.0278
     65 H          14.5663    3.7820   -0.9914 H       1  LIG1        0.0278
     66 H          15.3264    3.3511    0.5219 H       1  LIG1        0.0278
@<TRIPOS>BOND
     1    16    14    1
     2    28    26    1
     3    12    10    1
     4    32    30    1
     5    44    42    1
     6    48    46    1
     7    61    59    1
     8    65    63    1
     9    14     7    1
    10    14    17    1
    11    14    15    1
    12    25    23    1
    13     7     6   ar
    14     7     4   ar
    15    20    23   ar
    16    20     4    1
    17    20    18   ar
    18    23    24   ar
    19     6     8    1
    20     6     3   ar
    21     4     2   ar
    22    26    18    1
    23    26    29    1
    24    26    27    1
    25     1     3   ar
    26     1     2   ar
    27     1    10    1
    28     3     9    1
    29     2     5    1
    30    18    19   ar
    31    10    13    1
    32    10    11    1
    33    24    30    1
    34    24    21   ar
    35    30    33    1
    36    30    31    1
    37    19    21   ar
    38    19    22    1
    39    21    36    1
    40    41    39    1
    41    36    39   ar
    42    36    34   ar
    43    42    34    1
    44    42    45    1
    45    42    43    1
    46    39    40   ar
    47    34    35   ar
    48    40    46    1
    49    40    37   ar
    50    46    49    1
    51    46    47    1
    52    35    37   ar
    53    35    38    1
    54    37    52    1
    55    57    55    1
    56    52    55   ar
    57    52    50   ar
    58    59    50    1
    59    59    62    1
    60    59    60    1
    61    55    56   ar
    62    50    51   ar
    63    56    63    1
    64    56    53   ar
    65    51    53   ar
    66    51    54    1
    67    63    66    1
    68    63    64    1
    69    53    58    1
