@<TRIPOS>MOLECULE
mol_data/noopt/geoms/mol2/4ii4il12ha12eh.out
 55 55 0 0 0
SMALL
GASTEIGER

@<TRIPOS>ATOM
      1 C           0.0509    0.0309    0.0002 C.ar    1  LIG1       -0.0499
      2 C           1.4592    0.0309    0.0002 C.ar    1  LIG1       -0.0508
      3 C          -0.6045    1.2792    0.0002 C.ar    1  LIG1       -0.0586
      4 C           2.1849    1.2200   -0.0004 C.ar    1  LIG1       -0.0144
      5 H           1.9850   -0.9213    0.0004 H       1  LIG1        0.0626
      6 C           0.1195    2.4666   -0.0004 C.ar    1  LIG1       -0.0580
      7 C           1.5181    2.4458   -0.0008 C.ar    1  LIG1       -0.0427
      8 H          -0.4090    3.4165   -0.0003 H       1  LIG1        0.0620
      9 H          -1.9035    1.3287    0.0016 H       1  LIG1        0.0620
     10 C          -0.5710   -1.1111    0.0005 C.3     1  LIG1       -0.0397
     11 H           0.0257   -1.8420    0.5050 H       1  LIG1        0.0278
     12 H          -0.7416   -1.4245   -1.0083 H       1  LIG1        0.0278
     13 H          -1.5088   -1.0063    0.5049 H       1  LIG1        0.0278
     14 C           2.1897    3.5592   -0.0012 C.3     1  LIG1       -0.0391
     15 H           1.6260    4.3160    0.5031 H       1  LIG1        0.0278
     16 H           2.3738    3.8644   -1.0102 H       1  LIG1        0.0278
     17 H           3.1221    3.4135    0.5030 H       1  LIG1        0.0278
     18 C           4.1518   -0.0588    0.0002 C.ar    1  LIG1       -0.0419
     19 C           5.5600   -0.0451    0.0016 C.ar    1  LIG1       -0.0468
     20 C           3.4843    1.1831   -0.0005 C.ar    1  LIG1       -0.0111
     21 C           6.2742    1.1510    0.0017 C.ar    1  LIG1        0.0315
     22 H           6.0950   -0.9922    0.0024 H       1  LIG1        0.0628
     23 C           4.1968    2.3775   -0.0004 C.ar    1  LIG1       -0.0064
     24 C           5.5955    2.3702    0.0006 C.ar    1  LIG1        0.1873
     25 H           3.6591    3.3222   -0.0009 H       1  LIG1        0.0662
     26 C           3.5410   -1.2067   -0.0001 C.3     1  LIG1       -0.0391
     27 H           4.1447   -1.9321    0.5043 H       1  LIG1        0.0278
     28 H           3.3736   -1.5215   -1.0090 H       1  LIG1        0.0278
     29 H           2.6021   -1.1113    0.5042 H       1  LIG1        0.0278
     30 O           6.2562    3.4899    0.0008 O.3     1  LIG1       -0.2872
     31 C           7.6597    3.2159    0.0008 C.3     2  LIG2       -0.0309
     32 H           8.2031    4.1377    0.0008 H       1  LIG1        0.0309
     33 H           7.9131    2.6525    0.8745 H       0  HOH0        0.2052
     34 H           7.9131    2.6525   -0.8728 H       0  HOH0        0.2052
     35 C           7.5739    1.1267    0.0029 C.2     1  LIG1        0.0160
     36 C           8.5391    0.1410    0.0038 C.2     1  LIG1        0.0338
     37 C           9.8206    0.8153    0.0050 C.2     1  LIG1       -0.0290
     38 C           9.5534    2.1689    0.0046 C.2     1  LIG1        0.0310
     39 O           8.1751    2.3861    0.0032 O.3     3  HOH3       -0.4105
     40 N           8.3612   -1.1468    0.0038 N.pl3   1  LIG1       -0.3575
     41 H           7.5067   -1.3652   -0.4677 H       1  LIG1        0.1423
     42 H           9.1243   -1.5887   -0.4677 H       1  LIG1        0.1423
     43 H          10.9830    0.2332    0.0061 H       1  LIG1        0.0643
     44 C          10.2689    3.2542    0.0052 C.ar    1  LIG1        0.1527
     45 C          11.6178    3.5428    0.0205 C.ar    1  LIG1        0.0910
     46 C          11.7333    4.9862    0.0105 C.ar    1  LIG1        0.0791
     47 C          10.4468    5.4842   -0.0104 C.ar    1  LIG1        0.1144
     48 O           9.5262    4.4356   -0.0141 O.2     1  LIG1       -0.4598
     49 H           9.9123    6.6691   -0.0268 H       1  LIG1        0.1049
     50 C          12.6108    2.7040    0.0403 C.1     1  LIG1       -0.0640
     51 C          13.5282    1.9289    0.0585 C.1     1  LIG1       -0.1137
     52 H          14.3455    1.2384    0.0748 H       1  LIG1        0.1232
     53 N          12.8467    5.6573    0.0196 N.pl3   1  LIG1       -0.3546
     54 H          13.5565    5.1317   -0.4494 H       1  LIG1        0.1424
     55 H          12.7136    6.5303   -0.4495 H       1  LIG1        0.1424
@<TRIPOS>BOND
     1    16    14    1
     2    28    26    1
     3    12    10    1
     4    34    39    1
     5    42    40    1
     6    41    40    1
     7    55    53    1
     8    54    53    1
     9    49    47    1
    10    48    47   ar
    11    48    44   ar
    12    47    46   ar
    13    14     7    1
    14    14    17    1
    15    14    15    1
    16    25    23    1
    17     7     6   ar
    18     7     4   ar
    19    20    23   ar
    20    20     4    1
    21    20    18   ar
    22    23    24   ar
    23     6     8    1
    24     6     3   ar
    25     4     2   ar
    26    26    18    1
    27    26    29    1
    28    26    27    1
    29     1     2   ar
    30     1     3   ar
    31     1    10    1
    32     2     5    1
    33     3     9    1
    34    18    19   ar
    35    10    13    1
    36    10    11    1
    37    24    30    1
    38    24    21   ar
    39    31    32    1
    40    19    21   ar
    41    19    22    1
    42    21    35    1
    43    35    36    2
    44    39    33    1
    45    40    36    1
    46    36    37    1
    47    38    37    2
    48    38    44    1
    49    37    43    1
    50    44    45   ar
    51    46    53    1
    52    46    45   ar
    53    45    50    1
    54    50    51    3
    55    51    52    1
