@<TRIPOS>MOLECULE
mol_data/noopt/geoms/mol2/4ii4ii-4ii4ii.out
 66 59 0 0 0
SMALL
GASTEIGER

@<TRIPOS>ATOM
      1 C           0.0509    0.0309    0.0002 C.ar    1  LIG1       -0.0498
      2 C           1.4592    0.0309    0.0002 C.ar    1  LIG1       -0.0505
      3 C          -0.6045    1.2792    0.0002 C.ar    1  LIG1       -0.0582
      4 C           2.1849    1.2200   -0.0004 C.ar    1  LIG1       -0.0093
      5 H           1.9850   -0.9213    0.0004 H       1  LIG1        0.0626
      6 C           0.1195    2.4666   -0.0004 C.ar    1  LIG1       -0.0532
      7 C           1.5181    2.4458   -0.0008 C.ar    1  LIG1       -0.0096
      8 H          -0.4090    3.4165   -0.0003 H       1  LIG1        0.0624
      9 H          -1.9035    1.3287    0.0016 H       1  LIG1        0.0620
     10 C          -0.5710   -1.1111    0.0005 C.3     1  LIG1       -0.0397
     11 H           0.0257   -1.8420    0.5050 H       1  LIG1        0.0278
     12 H          -0.7416   -1.4245   -1.0083 H       1  LIG1        0.0278
     13 H          -1.5088   -1.0063    0.5049 H       1  LIG1        0.0278
     14 C           2.1897    3.5592   -0.0012 C.3     2  LIG2       -0.0309
     15 H           1.6260    4.3160    0.5031 H       3  UNK3        0.0000
     16 H           2.3738    3.8644   -1.0102 H       4  UNK4        0.0000
     17 H           3.1221    3.4135    0.5030 H       2  LIG2        0.0265
     18 C           4.2212    2.3851    0.0002 C.ar    1  LIG1       -0.0089
     19 C           5.6264    2.2916    0.0016 C.ar    1  LIG1       -0.0451
     20 C           3.4843    1.1831   -0.0005 C.ar    1  LIG1       -0.0090
     21 C           6.2715    1.0569    0.0017 C.ar    1  LIG1       -0.0090
     22 H           6.2143    3.2067    0.0024 H       1  LIG1        0.0630
     23 C           4.1278   -0.0498   -0.0004 C.ar    1  LIG1       -0.0451
     24 C           5.5247   -0.1219    0.0006 C.ar    1  LIG1       -0.0089
     25 H           3.5374   -0.9625   -0.0009 H       1  LIG1        0.0630
     26 C           3.6765    3.5659   -0.0001 C.3     5  LIG5       -0.0531
     27 H           2.7338    3.5239    0.5043 H       1  LIG1        0.0309
     28 H           3.5272    3.8895   -1.0090 H       6  UNK6        0.0000
     29 H           4.3204    4.2558    0.5042 H       2  LIG2        0.0265
     30 C           6.1209   -1.2775    0.0008 C.3     7  LIG7       -0.0531
     31 H           7.0608   -1.1938    0.5053 H       4  UNK4        0.0309
     32 H           6.2846   -1.5946   -1.0080 H       8  UNK8        0.0000
     33 H           5.5080   -1.9949    0.5052 H       3  UNK3        0.0265
     34 C           8.2259   -0.2409    0.0043 C.ar    1  LIG1       -0.0090
     35 C           9.6342   -0.2409    0.0071 C.ar    1  LIG1       -0.0454
     36 C           7.5705    1.0074    0.0029 C.ar    1  LIG1       -0.0093
     37 C          10.3599    0.9482    0.0079 C.ar    1  LIG1       -0.0141
     38 H          10.1600   -1.1931    0.0084 H       1  LIG1        0.0630
     39 C           8.2945    2.1948    0.0036 C.ar    1  LIG1       -0.0499
     40 C           9.6931    2.1740    0.0060 C.ar    1  LIG1       -0.0421
     41 H           7.7660    3.1447    0.0026 H       1  LIG1        0.0627
     42 C           7.6040   -1.3829    0.0034 C.3     9  LIG9       -0.0309
     43 H           8.2005   -2.1142    0.5076 H      10  UNK10       0.0000
     44 H           7.4338   -1.6956   -1.0056 H      11  UNK11       0.0000
     45 H           6.6660   -1.2785    0.5076 H       3  UNK3        0.0265
     46 C          10.3647    3.2874    0.0069 C.3     1  LIG1       -0.0391
     47 H           9.8007    4.0438    0.5116 H       1  LIG1        0.0278
     48 H          10.5493    3.5934   -1.0017 H       1  LIG1        0.0278
     49 H          11.2969    3.1412    0.5115 H       1  LIG1        0.0278
     50 C          12.3268   -0.3306    0.0125 C.ar    1  LIG1       -0.0427
     51 C          13.7350   -0.3169    0.0167 C.ar    1  LIG1       -0.0580
     52 C          11.6593    0.9113    0.0104 C.ar    1  LIG1       -0.0145
     53 C          14.4491    0.8791    0.0181 C.ar    1  LIG1       -0.0586
     54 H          14.2700   -1.2640    0.0186 H       1  LIG1        0.0620
     55 C          12.3718    2.1056    0.0118 C.ar    1  LIG1       -0.0509
     56 C          13.7705    2.0984    0.0156 C.ar    1  LIG1       -0.0499
     57 H          11.8341    3.0504    0.0102 H       1  LIG1        0.0626
     58 H          15.7489    0.8548    0.0219 H       1  LIG1        0.0620
     59 C          11.7160   -1.4785    0.0110 C.3     1  LIG1       -0.0391
     60 H          12.3194   -2.2043    0.5151 H       1  LIG1        0.0278
     61 H          11.5490   -1.7925   -0.9982 H       1  LIG1        0.0278
     62 H          10.7769   -1.3835    0.5150 H       1  LIG1        0.0278
     63 C          14.4313    3.2183    0.0171 C.3     1  LIG1       -0.0397
     64 H          13.8598    3.9690    0.5219 H       1  LIG1        0.0278
     65 H          14.6131    3.5265   -0.9914 H       1  LIG1        0.0278
     66 H          15.3647    3.0810    0.5219 H       1  LIG1        0.0278
@<TRIPOS>BOND
     1    12    10    1
     2    48    46    1
     3    61    59    1
     4    65    63    1
     5    14    27    1
     6    25    23    1
     7     7     6   ar
     8     7     4   ar
     9    20    23   ar
    10    20     4    1
    11    20    18   ar
    12    23    24   ar
    13     6     8    1
    14     6     3   ar
    15     4     2   ar
    16    26    17    1
    17    26    29    1
    18    18    19   ar
    19     1     3   ar
    20     1     2   ar
    21     1    10    1
    22     3     9    1
    23     2     5    1
    24    10    13    1
    25    10    11    1
    26    24    21   ar
    27    30    33    1
    28    30    45    1
    29    19    21   ar
    30    19    22    1
    31    21    36    1
    32    41    39    1
    33    36    39   ar
    34    36    34   ar
    35    42    31    1
    36    39    40   ar
    37    34    35   ar
    38    40    46    1
    39    40    37   ar
    40    46    49    1
    41    46    47    1
    42    35    37   ar
    43    35    38    1
    44    37    52    1
    45    57    55    1
    46    52    55   ar
    47    52    50   ar
    48    59    50    1
    49    59    62    1
    50    59    60    1
    51    55    56   ar
    52    50    51   ar
    53    56    63    1
    54    56    53   ar
    55    51    53   ar
    56    51    54    1
    57    63    66    1
    58    63    64    1
    59    53    58    1
