@<TRIPOS>MOLECULE
mol_data/noopt/geoms/mol2/4ii4ii4ii-4ii-.out
 66 64 0 0 0
SMALL
GASTEIGER

@<TRIPOS>ATOM
      1 C           0.0509    0.0309    0.0002 C.ar    1  LIG1       -0.0499
      2 C           1.4592    0.0309    0.0002 C.ar    1  LIG1       -0.0509
      3 C          -0.6045    1.2792    0.0002 C.ar    1  LIG1       -0.0586
      4 C           2.1849    1.2200   -0.0004 C.ar    1  LIG1       -0.0145
      5 H           1.9850   -0.9213    0.0004 H       1  LIG1        0.0626
      6 C           0.1195    2.4666   -0.0004 C.ar    1  LIG1       -0.0580
      7 C           1.5181    2.4458   -0.0008 C.ar    1  LIG1       -0.0427
      8 H          -0.4090    3.4165   -0.0003 H       1  LIG1        0.0620
      9 H          -1.9035    1.3287    0.0016 H       1  LIG1        0.0620
     10 C          -0.5710   -1.1111    0.0005 C.3     1  LIG1       -0.0397
     11 H           0.0257   -1.8420    0.5050 H       1  LIG1        0.0278
     12 H          -0.7416   -1.4245   -1.0083 H       1  LIG1        0.0278
     13 H          -1.5088   -1.0063    0.5049 H       1  LIG1        0.0278
     14 C           2.1897    3.5592   -0.0012 C.3     1  LIG1       -0.0391
     15 H           1.6260    4.3160    0.5031 H       1  LIG1        0.0278
     16 H           2.3738    3.8644   -1.0102 H       1  LIG1        0.0278
     17 H           3.1221    3.4135    0.5030 H       1  LIG1        0.0278
     18 C           4.1518   -0.0588    0.0002 C.ar    1  LIG1       -0.0421
     19 C           5.5600   -0.0451    0.0016 C.ar    1  LIG1       -0.0499
     20 C           3.4843    1.1831   -0.0005 C.ar    1  LIG1       -0.0141
     21 C           6.2742    1.1510    0.0017 C.ar    1  LIG1       -0.0093
     22 H           6.0950   -0.9922    0.0024 H       1  LIG1        0.0627
     23 C           4.1968    2.3775   -0.0004 C.ar    1  LIG1       -0.0454
     24 C           5.5955    2.3702    0.0006 C.ar    1  LIG1       -0.0090
     25 H           3.6591    3.3222   -0.0009 H       1  LIG1        0.0630
     26 C           3.5410   -1.2067   -0.0001 C.3     1  LIG1       -0.0391
     27 H           4.1447   -1.9321    0.5043 H       1  LIG1        0.0278
     28 H           3.3736   -1.5215   -1.0090 H       1  LIG1        0.0278
     29 H           2.6021   -1.1113    0.5042 H       1  LIG1        0.0278
     30 C           6.2563    3.4901    0.0008 C.3     2  LIG2       -0.0309
     31 H           5.6851    4.2412    0.5053 H       3  UNK3        0.0000
     32 H           6.4376    3.7975   -1.0080 H       4  UNK4        0.0000
     33 H           7.1900    3.3532    0.5052 H       2  LIG2        0.0265
     34 C           8.2991    2.3358    0.0043 C.ar    1  LIG1       -0.0090
     35 C           9.7051    2.2559    0.0071 C.ar    1  LIG1       -0.0454
     36 C           7.5739    1.1267    0.0029 C.ar    1  LIG1       -0.0093
     37 C          10.3621    1.0275    0.0079 C.ar    1  LIG1       -0.0141
     38 H          10.2841    3.1767    0.0084 H       1  LIG1        0.0630
     39 C           8.2293   -0.0999    0.0037 C.ar    1  LIG1       -0.0499
     40 C           9.6269   -0.1585    0.0061 C.ar    1  LIG1       -0.0421
     41 H           7.6478   -1.0183    0.0026 H       1  LIG1        0.0627
     42 C           7.7430    3.5112    0.0034 C.3     5  LIG5       -0.0531
     43 H           6.8006    3.4603    0.5076 H       1  LIG1        0.0309
     44 H           7.5906    3.8330   -1.0057 H       6  UNK6        0.0000
     45 H           8.3801    4.2075    0.5075 H       2  LIG2        0.0265
     46 C          10.2342   -1.3082    0.0069 C.3     1  LIG1       -0.0391
     47 H          11.1732   -1.2153    0.5116 H       1  LIG1        0.0278
     48 H          10.4012   -1.6242   -1.0017 H       1  LIG1        0.0278
     49 H           9.6281   -2.0314    0.5115 H       1  LIG1        0.0278
     50 C          12.3984    2.1926    0.0125 C.ar    1  LIG1       -0.0427
     51 C          13.8036    2.0991    0.0167 C.ar    1  LIG1       -0.0580
     52 C          11.6616    0.9906    0.0104 C.ar    1  LIG1       -0.0145
     53 C          14.4487    0.8644    0.0181 C.ar    1  LIG1       -0.0586
     54 H          14.3915    3.0142    0.0186 H       1  LIG1        0.0620
     55 C          12.3051   -0.2423    0.0118 C.ar    1  LIG1       -0.0509
     56 C          13.7020   -0.3144    0.0156 C.ar    1  LIG1       -0.0499
     57 H          11.7147   -1.1550    0.0102 H       1  LIG1        0.0626
     58 H          15.7478    0.8149    0.0219 H       1  LIG1        0.0620
     59 C          11.8538    3.3733    0.0110 C.3     1  LIG1       -0.0391
     60 H          10.9108    3.3318    0.5151 H       1  LIG1        0.0278
     61 H          11.7048    3.6962   -0.9982 H       1  LIG1        0.0278
     62 H          12.4975    4.0637    0.5150 H       1  LIG1        0.0278
     63 C          14.2982   -1.4700    0.0171 C.3     1  LIG1       -0.0397
     64 H          15.2378   -1.3859    0.5219 H       1  LIG1        0.0278
     65 H          14.4623   -1.7880   -0.9913 H       1  LIG1        0.0278
     66 H          13.6850   -2.1870    0.5219 H       1  LIG1        0.0278
@<TRIPOS>BOND
     1    16    14    1
     2    28    26    1
     3    12    10    1
     4    48    46    1
     5    61    59    1
     6    65    63    1
     7    14     7    1
     8    14    17    1
     9    14    15    1
    10    25    23    1
    11     7     6   ar
    12     7     4   ar
    13    20    23   ar
    14    20     4    1
    15    20    18   ar
    16    23    24   ar
    17     6     8    1
    18     6     3   ar
    19     4     2   ar
    20    26    18    1
    21    26    29    1
    22    26    27    1
    23     1     3   ar
    24     1     2   ar
    25     1    10    1
    26     3     9    1
    27     2     5    1
    28    18    19   ar
    29    10    13    1
    30    10    11    1
    31    24    21   ar
    32    30    43    1
    33    19    21   ar
    34    19    22    1
    35    21    36    1
    36    41    39    1
    37    36    39   ar
    38    36    34   ar
    39    42    33    1
    40    42    45    1
    41    39    40   ar
    42    34    35   ar
    43    40    46    1
    44    40    37   ar
    45    46    49    1
    46    46    47    1
    47    35    37   ar
    48    35    38    1
    49    37    52    1
    50    57    55    1
    51    52    55   ar
    52    52    50   ar
    53    59    50    1
    54    59    62    1
    55    59    60    1
    56    55    56   ar
    57    50    51   ar
    58    56    63    1
    59    56    53   ar
    60    51    53   ar
    61    51    54    1
    62    63    66    1
    63    63    64    1
    64    53    58    1
