@<TRIPOS>MOLECULE
mol_data/noopt/geoms/mol2/4ii4ha-12hf-13ff-.out
 50 53 0 0 0
SMALL
GASTEIGER

@<TRIPOS>ATOM
      1 C           0.0509    0.0309    0.0002 C.ar    1  LIG1       -0.0499
      2 C           1.4592    0.0309    0.0002 C.ar    1  LIG1       -0.0508
      3 C          -0.6045    1.2792    0.0002 C.ar    1  LIG1       -0.0586
      4 C           2.1849    1.2200   -0.0004 C.ar    1  LIG1       -0.0130
      5 H           1.9850   -0.9213    0.0004 H       1  LIG1        0.0626
      6 C           0.1195    2.4666   -0.0004 C.ar    1  LIG1       -0.0580
      7 C           1.5181    2.4458   -0.0008 C.ar    1  LIG1       -0.0427
      8 H          -0.4090    3.4165   -0.0003 H       1  LIG1        0.0620
      9 H          -1.9035    1.3287    0.0016 H       1  LIG1        0.0620
     10 C          -0.5710   -1.1111    0.0005 C.3     1  LIG1       -0.0397
     11 H           0.0257   -1.8420    0.5050 H       1  LIG1        0.0278
     12 H          -0.7416   -1.4245   -1.0083 H       1  LIG1        0.0278
     13 H          -1.5088   -1.0063    0.5049 H       1  LIG1        0.0278
     14 C           2.1897    3.5592   -0.0012 C.3     1  LIG1       -0.0391
     15 H           1.6260    4.3160    0.5031 H       1  LIG1        0.0278
     16 H           2.3738    3.8644   -1.0102 H       1  LIG1        0.0278
     17 H           3.1221    3.4135    0.5030 H       1  LIG1        0.0278
     18 C           4.1518   -0.0586    0.0215 C.ar    1  LIG1        0.0330
     19 C           5.5600   -0.0449    0.0220 C.ar    1  LIG1       -0.0297
     20 C           3.4843    1.1831   -0.0005 C.ar    1  LIG1        0.0031
     21 C           6.2742    1.1510    0.0009 C.ar    1  LIG1        0.0210
     22 H           6.0951   -0.9918    0.0390 H       1  LIG1        0.0643
     23 C           4.1968    2.3773   -0.0216 C.ar    1  LIG1       -0.0516
     24 C           5.5955    2.3701   -0.0212 C.ar    1  LIG1       -0.0503
     25 H           3.6591    3.3219   -0.0383 H       1  LIG1        0.0624
     26 N           3.5412   -1.2061    0.0416 N.pl3   1  LIG1       -0.3575
     27 H           2.6604   -1.1231   -0.4246 H       1  LIG1        0.1423
     28 H           4.1019   -1.8903   -0.4247 H       1  LIG1        0.1423
     29 H           6.2561    3.4895   -0.0408 H       1  LIG1        0.0625
     30 C           7.5739    1.1267    0.0018 C.ar    1  LIG1        0.1601
     31 C           8.5391    0.1412    0.0174 C.ar    1  LIG1        0.1138
     32 C           9.8206    0.8154    0.0077 C.ar    1  LIG1        0.1861
     33 C           9.5534    2.1688   -0.0133 C.ar    1  LIG1        0.1985
     34 O           8.1751    2.3860   -0.0173 O.2     1  LIG1       -0.4475
     35 N           8.3612   -1.1465    0.0371 N.pl3   1  LIG1       -0.3522
     36 H           7.5058   -1.3719   -0.4292 H       1  LIG1        0.1425
     37 H           9.1234   -1.5954   -0.4292 H       1  LIG1        0.1425
     38 O          10.9830    0.2334    0.0171 O.3     1  LIG1       -0.5019
     39 H          11.6747    0.8991    0.0194 H       1  LIG1        0.2924
     40 C          10.2689    3.2541   -0.0295 C.ar    1  LIG1        0.1316
     41 C          11.6180    3.4209   -0.0409 C.ar    1  LIG1        0.1873
     42 C          11.8746    4.8297   -0.0561 C.ar    1  LIG1        0.1768
     43 C          10.6710    5.4617   -0.0551 C.ar    1  LIG1        0.0480
     44 N           9.6853    4.5009   -0.0384 N.ar    1  LIG1       -0.3521
     45 H           8.7074    4.6790   -0.0340 H       1  LIG1        0.1656
     46 H          10.3841    6.7296   -0.0658 H       1  LIG1        0.0845
     47 O          12.5082    2.4735   -0.0371 O.3     1  LIG1       -0.5018
     48 H          13.3871    2.8597   -0.0361 H       1  LIG1        0.2924
     49 O          13.0417    5.4023   -0.0690 O.3     1  LIG1       -0.5023
     50 H          12.9307    6.3558   -0.0722 H       1  LIG1        0.2923
@<TRIPOS>BOND
     1    16    14    1
     2    12    10    1
     3    37    35    1
     4    36    35    1
     5    28    26    1
     6    27    26    1
     7    50    49    1
     8    49    42    1
     9    46    43    1
    10    42    43   ar
    11    42    41   ar
    12    43    44   ar
    13    41    47    1
    14    41    40   ar
    15    29    24    1
    16    44    45    1
    17    44    40   ar
    18    25    23    1
    19    47    48    1
    20    40    33    1
    21    23    24   ar
    22    23    20   ar
    23    24    21   ar
    24    34    33   ar
    25    34    30   ar
    26    33    32   ar
    27    14     7    1
    28    14    17    1
    29    14    15    1
    30     7     6   ar
    31     7     4   ar
    32    20     4    1
    33    20    18   ar
    34     6     8    1
    35     6     3   ar
    36     4     2   ar
    37     1     2   ar
    38     1     3   ar
    39     1    10    1
    40     2     5    1
    41     3     9    1
    42    10    13    1
    43    10    11    1
    44    21    30    1
    45    21    19   ar
    46    30    31   ar
    47    32    38    1
    48    32    31   ar
    49    38    39    1
    50    31    35    1
    51    18    19   ar
    52    18    26    1
    53    19    22    1
