@<TRIPOS>MOLECULE
mol_data/noopt/geoms/mol2/4ii4ii.out
 34 35 0 0 0
SMALL
GASTEIGER

@<TRIPOS>ATOM
      1 C           0.0509    0.0309    0.0002 C.ar    1  LIG1       -0.0499
      2 C           1.4592    0.0309    0.0002 C.ar    1  LIG1       -0.0509
      3 C          -0.6045    1.2792    0.0002 C.ar    1  LIG1       -0.0586
      4 C           2.1849    1.2200   -0.0004 C.ar    1  LIG1       -0.0145
      5 H           1.9850   -0.9213    0.0004 H       1  LIG1        0.0626
      6 C           0.1195    2.4666   -0.0004 C.ar    1  LIG1       -0.0580
      7 C           1.5181    2.4458   -0.0008 C.ar    1  LIG1       -0.0427
      8 H          -0.4090    3.4165   -0.0003 H       1  LIG1        0.0620
      9 H          -1.9035    1.3287    0.0016 H       1  LIG1        0.0620
     10 C          -0.5710   -1.1111    0.0005 C.3     1  LIG1       -0.0397
     11 H           0.0257   -1.8420    0.5050 H       1  LIG1        0.0278
     12 H          -0.7416   -1.4245   -1.0083 H       1  LIG1        0.0278
     13 H          -1.5088   -1.0063    0.5049 H       1  LIG1        0.0278
     14 C           2.1897    3.5592   -0.0012 C.3     1  LIG1       -0.0391
     15 H           1.6260    4.3160    0.5031 H       1  LIG1        0.0278
     16 H           2.3738    3.8644   -1.0102 H       1  LIG1        0.0278
     17 H           3.1221    3.4135    0.5030 H       1  LIG1        0.0278
     18 C           4.1518   -0.0588    0.0002 C.ar    1  LIG1       -0.0427
     19 C           5.5600   -0.0451    0.0016 C.ar    1  LIG1       -0.0580
     20 C           3.4843    1.1831   -0.0005 C.ar    1  LIG1       -0.0145
     21 C           6.2742    1.1510    0.0017 C.ar    1  LIG1       -0.0586
     22 H           6.0950   -0.9922    0.0024 H       1  LIG1        0.0620
     23 C           4.1968    2.3775   -0.0004 C.ar    1  LIG1       -0.0509
     24 C           5.5955    2.3702    0.0006 C.ar    1  LIG1       -0.0499
     25 H           3.6591    3.3222   -0.0009 H       1  LIG1        0.0626
     26 H           7.5740    1.1267    0.0029 H       1  LIG1        0.0620
     27 C           3.5410   -1.2067   -0.0001 C.3     1  LIG1       -0.0391
     28 H           4.1447   -1.9321    0.5043 H       1  LIG1        0.0278
     29 H           3.3736   -1.5215   -1.0090 H       1  LIG1        0.0278
     30 H           2.6021   -1.1113    0.5042 H       1  LIG1        0.0278
     31 C           6.2563    3.4901    0.0008 C.3     1  LIG1       -0.0397
     32 H           5.6851    4.2412    0.5053 H       1  LIG1        0.0278
     33 H           6.4376    3.7975   -1.0080 H       1  LIG1        0.0278
     34 H           7.1900    3.3532    0.5052 H       1  LIG1        0.0278
@<TRIPOS>BOND
     1    16    14    1
     2    29    27    1
     3    12    10    1
     4    33    31    1
     5    14     7    1
     6    14    17    1
     7    14    15    1
     8    25    23    1
     9     7     4   ar
    10     7     6   ar
    11    20    23   ar
    12    20     4    1
    13    20    18   ar
    14    23    24   ar
    15     4     2   ar
    16     6     8    1
    17     6     3   ar
    18    27    18    1
    19    27    30    1
    20    27    28    1
    21     1     3   ar
    22     1     2   ar
    23     1    10    1
    24     3     9    1
    25     2     5    1
    26    18    19   ar
    27    10    13    1
    28    10    11    1
    29    24    31    1
    30    24    21   ar
    31    31    34    1
    32    31    32    1
    33    19    21   ar
    34    19    22    1
    35    21    26    1
