@<TRIPOS>MOLECULE
mol_data/noopt/geoms/mol2/4ii4el(120)4ae(340)6ef(220).out
 58 61 0 0 0
SMALL
GASTEIGER

@<TRIPOS>ATOM
      1 C           0.0509    0.0309    0.0002 C.ar    1  LIG1       -0.0499
      2 C           1.4592    0.0309    0.0002 C.ar    1  LIG1       -0.0508
      3 C          -0.6045    1.2792    0.0002 C.ar    1  LIG1       -0.0586
      4 C           2.1849    1.2200   -0.0004 C.ar    1  LIG1       -0.0134
      5 H           1.9850   -0.9213    0.0004 H       1  LIG1        0.0626
      6 C           0.1195    2.4666   -0.0004 C.ar    1  LIG1       -0.0580
      7 C           1.5181    2.4458   -0.0008 C.ar    1  LIG1       -0.0427
      8 H          -0.4090    3.4165   -0.0003 H       1  LIG1        0.0620
      9 H          -1.9035    1.3287    0.0016 H       1  LIG1        0.0620
     10 C          -0.5710   -1.1111    0.0005 C.3     1  LIG1       -0.0397
     11 H           0.0257   -1.8420    0.5050 H       1  LIG1        0.0278
     12 H          -0.7416   -1.4245   -1.0083 H       1  LIG1        0.0278
     13 H          -1.5088   -1.0063    0.5049 H       1  LIG1        0.0278
     14 C           2.1897    3.5592   -0.0012 C.3     1  LIG1       -0.0391
     15 H           1.6260    4.3160    0.5031 H       1  LIG1        0.0278
     16 H           2.3738    3.8644   -1.0102 H       1  LIG1        0.0278
     17 H           3.1221    3.4135    0.5030 H       1  LIG1        0.0278
     18 C           4.2039    1.7748    1.0577 C.ar    1  LIG1        0.0332
     19 C           5.6099    1.7094    1.0104 C.ar    1  LIG1       -0.0345
     20 C           3.4843    1.1831   -0.0005 C.ar    1  LIG1        0.0012
     21 C           6.2722    1.0825   -0.0427 C.ar    1  LIG1        0.0250
     22 H           6.1847    2.1597    1.8167 H       1  LIG1        0.0637
     23 C           4.1450    0.5571   -1.0521 C.ar    1  LIG1       -0.0105
     24 C           5.5424    0.5022   -1.0808 C.ar    1  LIG1        0.1284
     25 H           3.5677    0.1084   -1.8564 H       1  LIG1        0.0661
     26 C           3.6430    2.3730    2.0664 C.1     1  LIG1       -0.0690
     27 C           3.1246    2.9257    2.9985 C.1     1  LIG1       -0.1139
     28 H           2.6629    3.4180    3.8287 H       1  LIG1        0.1232
     29 O           6.1545   -0.0842   -2.0665 O.3     1  LIG1       -0.4945
     30 C           5.4468   -1.2729   -2.4284 C.3     1  LIG1        0.0788
     31 H           5.9508   -1.7551   -3.2398 H       1  LIG1        0.0660
     32 H           5.4084   -1.9348   -1.5886 H       1  LIG1        0.0660
     33 H           4.4515   -1.0183   -2.7277 H       1  LIG1        0.0660
     34 C           8.2326   -0.1306   -0.4780 C.ar    1  LIG1       -0.0533
     35 C           9.6408   -0.1263   -0.4709 C.ar    1  LIG1       -0.0522
     36 C           7.5714    1.0404   -0.0543 C.ar    1  LIG1       -0.0132
     37 C          10.3611    0.9935   -0.0610 C.ar    1  LIG1        0.0003
     38 H          10.1710   -1.0195   -0.7937 H       1  LIG1        0.0624
     39 C           8.2900    2.1586    0.3549 C.ar    1  LIG1       -0.0379
     40 C           9.6886    2.1434    0.3545 C.ar    1  LIG1        0.0330
     41 H           7.7571    3.0495    0.6772 H       1  LIG1        0.0636
     42 H           7.6161   -1.2054   -0.8714 H       1  LIG1        0.0624
     43 C          10.3550    3.1916    0.7383 C.1     1  LIG1       -0.0690
     44 C          10.9707    4.1602    1.0929 C.1     1  LIG1       -0.1139
     45 H          11.5191    5.0229    1.4088 H       1  LIG1        0.1232
     46 C          12.3533    0.0158    0.7092 C.ar    1  LIG1        0.1211
     47 C          11.6607    0.9628   -0.0672 C.ar    1  LIG1        0.0206
     48 C          12.3998    1.8615   -0.8386 C.ar    1  LIG1       -0.0083
     49 C          13.7933    1.7849   -0.8087 C.ar    1  LIG1        0.1355
     50 C          14.3947    0.8028   -0.0004 C.ar    1  LIG1        0.0704
     51 N          13.6970   -0.0722    0.7499 N.ar    1  LIG1       -0.2425
     52 H          11.8936    2.6161   -1.4570 H       1  LIG1        0.0661
     53 H          15.6885    0.6919    0.0606 H       1  LIG1        0.0867
     54 C          11.7093   -0.8419    1.4438 C.1     1  LIG1       -0.0492
     55 C          11.1142   -1.6344    2.1225 C.1     1  LIG1       -0.1124
     56 H          10.5841   -2.3403    2.7271 H       1  LIG1        0.1232
     57 O          14.5263    2.5990   -1.5088 O.3     1  LIG1       -0.5052
     58 H          14.0345    3.4052   -1.6813 H       1  LIG1        0.2922
@<TRIPOS>BOND
     1    31    30    1
     2    33    30    1
     3    30    29    1
     4    30    32    1
     5    29    24    1
     6    25    23    1
     7    58    57    1
     8    57    49    1
     9    52    48    1
    10    24    23   ar
    11    24    21   ar
    12    23    20   ar
    13    16    14    1
    14    12    10    1
    15    42    34    1
    16    48    49   ar
    17    48    47   ar
    18    49    50   ar
    19    38    35    1
    20    34    35   ar
    21    34    36   ar
    22    35    37   ar
    23    47    37    1
    24    47    46   ar
    25    37    40   ar
    26    36    21    1
    27    36    39   ar
    28    21    19   ar
    29    14     7    1
    30    14    17    1
    31    14    15    1
    32     7     6   ar
    33     7     4   ar
    34    20     4    1
    35    20    18   ar
    36     6     8    1
    37     6     3   ar
    38     4     2   ar
    39    50    53    1
    40    50    51   ar
    41     1     2   ar
    42     1     3   ar
    43     1    10    1
    44     2     5    1
    45     3     9    1
    46    10    13    1
    47    10    11    1
    48    40    39   ar
    49    40    43    1
    50    39    41    1
    51    46    51   ar
    52    46    54    1
    53    43    44    3
    54    19    18   ar
    55    19    22    1
    56    18    26    1
    57    44    45    1
    58    54    55    3
    59    26    27    3
    60    55    56    1
    61    27    28    1
