@<TRIPOS>MOLECULE
mol_data/noopt/geoms/mol2/4ii4fl12da-6ei-.out
 55 55 0 0 0
SMALL
GASTEIGER

@<TRIPOS>ATOM
      1 C           0.0509    0.0309    0.0002 C.ar    1  LIG1       -0.0499
      2 C           1.4592    0.0309    0.0002 C.ar    1  LIG1       -0.0507
      3 C          -0.6045    1.2792    0.0002 C.ar    1  LIG1       -0.0586
      4 C           2.1849    1.2200   -0.0004 C.ar    1  LIG1       -0.0111
      5 H           1.9850   -0.9213    0.0004 H       1  LIG1        0.0626
      6 C           0.1195    2.4666   -0.0004 C.ar    1  LIG1       -0.0580
      7 C           1.5181    2.4458   -0.0008 C.ar    1  LIG1       -0.0426
      8 H          -0.4090    3.4165   -0.0003 H       1  LIG1        0.0620
      9 H          -1.9035    1.3287    0.0016 H       1  LIG1        0.0620
     10 C          -0.5710   -1.1111    0.0005 C.3     1  LIG1       -0.0397
     11 H           0.0257   -1.8420    0.5050 H       1  LIG1        0.0278
     12 H          -0.7416   -1.4245   -1.0083 H       1  LIG1        0.0278
     13 H          -1.5088   -1.0063    0.5049 H       1  LIG1        0.0278
     14 C           2.1897    3.5592   -0.0012 C.3     1  LIG1       -0.0391
     15 H           1.6260    4.3160    0.5031 H       1  LIG1        0.0278
     16 H           2.3738    3.8644   -1.0102 H       1  LIG1        0.0278
     17 H           3.1221    3.4135    0.5030 H       1  LIG1        0.0278
     18 C           4.1518   -0.0588    0.0002 C.ar    1  LIG1        0.1254
     19 C           5.5600   -0.0451    0.0016 C.ar    1  LIG1       -0.0081
     20 C           3.4843    1.1831   -0.0005 C.ar    1  LIG1        0.0275
     21 C           6.2742    1.1510    0.0017 C.ar    1  LIG1        0.0341
     22 H           6.0950   -0.9922    0.0024 H       1  LIG1        0.0661
     23 C           4.1968    2.3775   -0.0004 C.ar    1  LIG1       -0.0031
     24 C           5.5955    2.3702    0.0006 C.ar    1  LIG1        0.1875
     25 H           3.6591    3.3222   -0.0009 H       1  LIG1        0.0663
     26 O           3.5411   -1.2065   -0.0001 O.3     1  LIG1       -0.5061
     27 H           4.1895   -1.9144   -0.0001 H       1  LIG1        0.2922
     28 O           6.2562    3.4899    0.0008 O.3     1  LIG1       -0.2872
     29 C           7.6597    3.2159    0.0008 C.3     2  LIG2       -0.0309
     30 H           8.2031    4.1377    0.0008 H       1  LIG1        0.0309
     31 H           7.9131    2.6525    0.8745 H       0  HOH0        0.2052
     32 H           7.9131    2.6525   -0.8728 H       0  HOH0        0.2052
     33 C           7.5739    1.1267    0.0029 C.2     1  LIG1        0.0123
     34 C           8.5390    0.1411    0.0186 C.2     1  LIG1        0.0608
     35 C           9.8206    0.8153    0.0091 C.2     1  LIG1       -0.0353
     36 C           9.5534    2.1688   -0.0119 C.2     1  LIG1       -0.0062
     37 O           8.1751    2.3860   -0.0162 O.3     3  HOH3       -0.4105
     38 N           8.2042   -2.2822    0.0557 N.1     1  LIG1       -0.1908
     39 C           8.3611   -1.1465    0.0383 C.1     1  LIG1        0.0998
     40 H          10.9829    0.2333    0.0187 H       1  LIG1        0.0637
     41 C           9.6469    4.5155   -0.0579 C.ar    1  LIG1        0.1208
     42 C          10.2689    3.2540   -0.0281 C.ar    1  LIG1        0.0168
     43 C          11.6639    3.1986   -0.0160 C.ar    1  LIG1       -0.0470
     44 C          12.3841    4.3942   -0.0342 C.ar    1  LIG1       -0.0317
     45 C          11.6715    5.6070   -0.0640 C.ar    1  LIG1        0.0319
     46 N          10.3261    5.6788   -0.0758 N.ar    1  LIG1       -0.2458
     47 H          12.1852    2.2311    0.0062 H       1  LIG1        0.0628
     48 H          12.2972    6.7463   -0.0817 H       1  LIG1        0.0832
     49 C           8.3510    4.6186   -0.0700 C.1     1  LIG1       -0.0492
     50 C           7.1537    4.7138   -0.0812 C.1     1  LIG1       -0.1124
     51 H           6.0871    4.7986   -0.0911 H       1  LIG1        0.1232
     52 C          13.6843    4.3959   -0.0242 C.3     1  LIG1       -0.0383
     53 H          14.0360    5.2701    0.4829 H       1  LIG1        0.0278
     54 H          14.0487    4.3965   -1.0303 H       1  LIG1        0.0278
     55 H          14.0383    3.5227    0.4828 H       1  LIG1        0.0278
@<TRIPOS>BOND
     1    54    52    1
     2    16    14    1
     3    12    10    1
     4    32    37    1
     5    51    50    1
     6    48    45    1
     7    50    49    3
     8    46    45   ar
     9    46    41   ar
    10    49    41    1
    11    45    44   ar
    12    41    42   ar
    13    44    52    1
    14    44    43   ar
    15    42    43   ar
    16    42    36    1
    17    52    55    1
    18    52    53    1
    19    37    31    1
    20    43    47    1
    21    36    35    2
    22    14     7    1
    23    14    17    1
    24    14    15    1
    25    25    23    1
    26     7     4   ar
    27     7     6   ar
    28    20    23   ar
    29    20     4    1
    30    20    18   ar
    31    23    24   ar
    32     4     2   ar
    33     6     8    1
    34     6     3   ar
    35    27    26    1
    36    26    18    1
    37     3     1   ar
    38     3     9    1
    39     1     2   ar
    40     1    10    1
    41     2     5    1
    42    18    19   ar
    43    10    13    1
    44    10    11    1
    45    24    28    1
    46    24    21   ar
    47    29    30    1
    48    19    21   ar
    49    19    22    1
    50    21    33    1
    51    33    34    2
    52    35    34    1
    53    35    40    1
    54    34    39    1
    55    39    38    3
