@<TRIPOS>MOLECULE
mol_data/noopt/geoms/mol2/4ii6ae(140)6fd(50)13de(250).out
 51 54 0 0 0
SMALL
GASTEIGER

@<TRIPOS>ATOM
      1 C           0.0509    0.0309    0.0002 C.ar    1  LIG1       -0.0499
      2 C           1.4592    0.0309    0.0002 C.ar    1  LIG1       -0.0508
      3 C          -0.6045    1.2792    0.0002 C.ar    1  LIG1       -0.0586
      4 C           2.1849    1.2200   -0.0004 C.ar    1  LIG1       -0.0132
      5 H           1.9850   -0.9213    0.0004 H       1  LIG1        0.0626
      6 C           0.1195    2.4666   -0.0004 C.ar    1  LIG1       -0.0580
      7 C           1.5181    2.4458   -0.0008 C.ar    1  LIG1       -0.0427
      8 H          -0.4090    3.4165   -0.0003 H       1  LIG1        0.0620
      9 H          -1.9035    1.3287    0.0016 H       1  LIG1        0.0620
     10 C          -0.5710   -1.1111    0.0005 C.3     1  LIG1       -0.0397
     11 H           0.0257   -1.8420    0.5050 H       1  LIG1        0.0278
     12 H          -0.7416   -1.4245   -1.0083 H       1  LIG1        0.0278
     13 H          -1.5088   -1.0063    0.5049 H       1  LIG1        0.0278
     14 C           2.1897    3.5592   -0.0012 C.3     1  LIG1       -0.0391
     15 H           1.6260    4.3160    0.5031 H       1  LIG1        0.0278
     16 H           2.3738    3.8644   -1.0102 H       1  LIG1        0.0278
     17 H           3.1221    3.4135    0.5030 H       1  LIG1        0.0278
     18 C           4.1688    0.2331   -0.7806 C.ar    1  LIG1        0.0360
     19 C           3.4844    1.1831   -0.0005 C.ar    1  LIG1        0.0017
     20 C           4.2315    2.0783    0.7672 C.ar    1  LIG1       -0.0351
     21 C           5.6245    1.9952    0.7305 C.ar    1  LIG1        0.0514
     22 C           6.2173    1.0103   -0.0808 C.ar    1  LIG1        0.0914
     23 N           5.5118    0.1388   -0.8279 N.ar    1  LIG1       -0.2530
     24 H           3.7318    2.8338    1.3899 H       1  LIG1        0.0637
     25 H           3.5171   -0.6214   -1.5121 H       1  LIG1        0.0836
     26 C           6.3647    2.8056    1.4272 C.1     1  LIG1       -0.0675
     27 C           7.0486    3.5544    2.0709 C.1     1  LIG1       -0.1138
     28 H           7.6579    4.2214    2.6443 H       1  LIG1        0.1232
     29 C           8.2397    1.6116   -1.1135 C.ar    1  LIG1        0.2224
     30 C           7.5102    0.8934   -0.1483 C.ar    1  LIG1        0.0641
     31 C           8.2059    0.0588    0.7284 C.ar    1  LIG1       -0.0279
     32 C           9.5942   -0.0298    0.6125 C.ar    1  LIG1        0.0800
     33 C          10.2344    0.7277   -0.3854 C.ar    1  LIG1        0.1095
     34 N           9.5790    1.5379   -1.2393 N.ar    1  LIG1       -0.2096
     35 H           7.6699   -0.5186    1.4949 H       1  LIG1        0.0639
     36 O           7.6368    2.4014   -1.9518 O.3     1  LIG1       -0.4919
     37 H           6.7689    2.0470   -2.1584 H       1  LIG1        0.2937
     38 N          10.8987   -1.4658    2.1031 N.1     1  LIG1       -0.1908
     39 C          10.2873   -0.7928    1.4045 C.1     1  LIG1        0.1014
     40 C          11.5252    0.6788   -0.5327 C.ar    1  LIG1        0.0851
     41 C          12.3064    1.0306   -1.5881 C.ar    1  LIG1        0.0938
     42 C          13.6655    0.7712   -1.2194 C.ar    1  LIG1        0.0600
     43 C          13.6553    0.2739    0.0458 C.ar    1  LIG1        0.0190
     44 N          12.3468    0.2153    0.4699 N.ar    1  LIG1       -0.3573
     45 H          12.0436   -0.1095    1.3590 H       1  LIG1        0.1655
     46 H          14.6350   -0.1089    0.8097 H       1  LIG1        0.0820
     47 N          11.5266    1.9366   -3.7228 N.1     1  LIG1       -0.1908
     48 C          11.8920    1.5120   -2.7224 C.1     1  LIG1        0.1026
     49 C          14.7178    0.9730   -1.9556 C.1     1  LIG1       -0.0669
     50 C          15.6900    1.1595   -2.6359 C.1     1  LIG1       -0.1138
     51 H          16.5561    1.3257   -3.2419 H       1  LIG1        0.1232
@<TRIPOS>BOND
     1    47    48    3
     2    51    50    1
     3    48    41    1
     4    50    49    3
     5    37    36    1
     6    49    42    1
     7    36    29    1
     8    41    42   ar
     9    41    40   ar
    10    25    18    1
    11    34    29   ar
    12    34    33   ar
    13    42    43   ar
    14    29    30   ar
    15    16    14    1
    16    12    10    1
    17    23    18   ar
    18    23    22   ar
    19    18    19   ar
    20    40    33    1
    21    40    44   ar
    22    33    32   ar
    23    30    22    1
    24    30    31   ar
    25    22    21   ar
    26    14     7    1
    27    14    17    1
    28    14    15    1
    29     7     6   ar
    30     7     4   ar
    31    19     4    1
    32    19    20   ar
    33     6     8    1
    34     6     3   ar
    35     4     2   ar
    36     1     2   ar
    37     1     3   ar
    38     1    10    1
    39     2     5    1
    40     3     9    1
    41    10    13    1
    42    10    11    1
    43    43    44   ar
    44    43    46    1
    45    44    45    1
    46    32    31   ar
    47    32    39    1
    48    31    35    1
    49    21    20   ar
    50    21    26    1
    51    20    24    1
    52    39    38    3
    53    26    27    3
    54    27    28    1
