@<TRIPOS>MOLECULE
mol_data/noopt/geoms/mol2/4ii6ff(170)12ea(290)12hd(10).out
 48 51 0 0 0
SMALL
GASTEIGER

@<TRIPOS>ATOM
      1 C           0.0509    0.0309    0.0002 C.ar    1  LIG1       -0.0499
      2 C           1.4592    0.0309    0.0002 C.ar    1  LIG1       -0.0507
      3 C          -0.6045    1.2792    0.0002 C.ar    1  LIG1       -0.0586
      4 C           2.1849    1.2200   -0.0004 C.ar    1  LIG1       -0.0095
      5 H           1.9850   -0.9213    0.0004 H       1  LIG1        0.0626
      6 C           0.1195    2.4666   -0.0004 C.ar    1  LIG1       -0.0580
      7 C           1.5181    2.4458   -0.0008 C.ar    1  LIG1       -0.0426
      8 H          -0.4090    3.4165   -0.0003 H       1  LIG1        0.0620
      9 H          -1.9035    1.3287    0.0016 H       1  LIG1        0.0620
     10 C          -0.5710   -1.1111    0.0005 C.3     1  LIG1       -0.0397
     11 H           0.0257   -1.8420    0.5050 H       1  LIG1        0.0278
     12 H          -0.7416   -1.4245   -1.0083 H       1  LIG1        0.0278
     13 H          -1.5088   -1.0063    0.5049 H       1  LIG1        0.0278
     14 C           2.1897    3.5592   -0.0012 C.3     1  LIG1       -0.0391
     15 H           1.6260    4.3160    0.5031 H       1  LIG1        0.0278
     16 H           2.3738    3.8644   -1.0102 H       1  LIG1        0.0278
     17 H           3.1221    3.4135    0.5030 H       1  LIG1        0.0278
     18 C           4.1613   -0.0321   -0.2113 C.ar    1  LIG1        0.2211
     19 C           3.4844    1.1831   -0.0005 C.ar    1  LIG1        0.0473
     20 C           4.2389    2.3393    0.2067 C.ar    1  LIG1       -0.0051
     21 C           5.6315    2.2437    0.1966 C.ar    1  LIG1        0.1466
     22 C           6.2165    0.9830   -0.0225 C.ar    1  LIG1        0.1522
     23 N           5.5038   -0.1425   -0.2243 N.ar    1  LIG1       -0.2056
     24 H           3.7452    3.3067    0.3757 H       1  LIG1        0.0662
     25 O           3.5026   -1.1354   -0.4088 O.3     1  LIG1       -0.4920
     26 H           4.1172   -1.8712   -0.4575 H       1  LIG1        0.2937
     27 O           6.3784    3.2910    0.3847 O.3     1  LIG1       -0.5045
     28 H           5.8257    4.0746    0.4311 H       1  LIG1        0.2922
     29 C           7.5088    0.8432   -0.0410 C.ar    1  LIG1        0.1729
     30 C           8.4338    0.3697   -0.9483 C.ar    1  LIG1        0.0727
     31 C           9.7330    0.4986   -0.3217 C.ar    1  LIG1        0.0034
     32 C           9.5155    1.0426    0.9275 C.ar    1  LIG1        0.1737
     33 O           8.1520    1.2641    1.1239 O.2     1  LIG1       -0.4487
     34 C           8.2108   -0.1044   -2.1380 C.1     1  LIG1       -0.0658
     35 C           8.0048   -0.5425   -3.2373 C.1     1  LIG1       -0.1138
     36 H           7.8212   -0.9328   -4.2165 H       1  LIG1        0.1232
     37 H          10.8687    0.1595   -0.8557 H       1  LIG1        0.0669
     38 C          10.2662    1.3854    1.9320 C.ar    1  LIG1        0.1915
     39 C          11.1273    0.7275    2.7855 C.ar    1  LIG1        0.0917
     40 C          11.6483    1.7238    3.6982 C.ar    1  LIG1        0.1107
     41 C          11.0707    2.9249    3.3415 C.ar    1  LIG1        0.1119
     42 O          10.2147    2.7421    2.2550 O.2     1  LIG1       -0.4566
     43 H          11.1391    4.1496    3.7722 H       1  LIG1        0.1043
     44 N          11.4298   -0.5369    2.7919 N.pl3   1  LIG1       -0.3540
     45 H          10.7138   -1.0532    2.3221 H       1  LIG1        0.1425
     46 H          12.3019   -0.6733    2.3220 H       1  LIG1        0.1425
     47 N          13.2428    1.3062    5.5062 N.1     1  LIG1       -0.1907
     48 C          12.4956    1.5019    4.6589 C.1     1  LIG1        0.1042
@<TRIPOS>BOND
     1    36    35    1
     2    35    34    3
     3    34    30    1
     4    16    14    1
     5    12    10    1
     6    30    31   ar
     7    30    29   ar
     8    37    31    1
     9    26    25    1
    10    25    18    1
    11    31    32   ar
    12    23    18   ar
    13    23    22   ar
    14    18    19   ar
    15    29    22    1
    16    29    33   ar
    17    22    21   ar
    18    14     7    1
    19    14    17    1
    20    14    15    1
    21     7     6   ar
    22     7     4   ar
    23    19     4    1
    24    19    20   ar
    25     6     8    1
    26     6     3   ar
    27     4     2   ar
    28     1     2   ar
    29     1     3   ar
    30     1    10    1
    31     2     5    1
    32     3     9    1
    33    10    13    1
    34    10    11    1
    35    21    20   ar
    36    21    27    1
    37    20    24    1
    38    27    28    1
    39    32    33   ar
    40    32    38    1
    41    38    42   ar
    42    38    39   ar
    43    42    41   ar
    44    46    44    1
    45    45    44    1
    46    39    44    1
    47    39    40   ar
    48    41    40   ar
    49    41    43    1
    50    40    48    1
    51    48    47    3
