@<TRIPOS>MOLECULE
mol_data/noopt/geoms/mol2/4il.out
 19 19 0 0 0
SMALL
GASTEIGER

@<TRIPOS>ATOM
      1 C           0.0509    0.0309    0.0002 C.ar    1  LIG1       -0.0502
      2 C           1.4592    0.0309    0.0002 C.ar    1  LIG1       -0.0554
      3 C          -0.6045    1.2792    0.0002 C.ar    1  LIG1       -0.0554
      4 C           2.1849    1.2200   -0.0004 C.ar    1  LIG1       -0.0197
      5 H           1.9850   -0.9213    0.0004 H       1  LIG1        0.0621
      6 C           0.1195    2.4666   -0.0004 C.ar    1  LIG1       -0.0197
      7 C           1.5181    2.4458   -0.0008 C.ar    1  LIG1        0.1201
      8 H          -0.4090    3.4165   -0.0003 H       1  LIG1        0.0654
      9 H           3.4844    1.1831   -0.0005 H       1  LIG1        0.0654
     10 H          -1.9035    1.3287    0.0016 H       1  LIG1        0.0621
     11 C          -0.5710   -1.1111    0.0005 C.3     1  LIG1       -0.0397
     12 H           0.0257   -1.8420    0.5050 H       1  LIG1        0.0278
     13 H          -0.7416   -1.4245   -1.0083 H       1  LIG1        0.0278
     14 H          -1.5088   -1.0063    0.5049 H       1  LIG1        0.0278
     15 O           2.1896    3.5590   -0.0012 O.3     1  LIG1       -0.4951
     16 C           3.5904    3.2714   -0.0014 C.3     1  LIG1        0.0788
     17 H           4.1427    4.1879   -0.0019 H       1  LIG1        0.0660
     18 H           3.8386    2.7059    0.8724 H       1  LIG1        0.0660
     19 H           3.8381    2.7052   -0.8749 H       1  LIG1        0.0660
@<TRIPOS>BOND
     1    13    11    1
     2    19    16    1
     3    17    16    1
     4    16    15    1
     5    16    18    1
     6    15     7    1
     7     7     4   ar
     8     7     6   ar
     9     9     4    1
    10     4     2   ar
    11     6     8    1
    12     6     3   ar
    13     1     3   ar
    14     1     2   ar
    15     1    11    1
    16     3    10    1
    17     2     5    1
    18    11    14    1
    19    11    12    1
