@<TRIPOS>MOLECULE
mol_data/noopt/geoms/mol2/4il12ih-12ah13la-.out
 52 47 0 0 0
SMALL
GASTEIGER

@<TRIPOS>ATOM
      1 C           0.0509    0.0309    0.0002 C.ar    1  LIG1       -0.0496
      2 C           1.4592    0.0309    0.0002 C.ar    1  LIG1       -0.0474
      3 C          -0.6045    1.2792    0.0002 C.ar    1  LIG1       -0.0552
      4 C           2.1849    1.2200   -0.0004 C.ar    1  LIG1        0.0299
      5 H           1.9850   -0.9213    0.0004 H       1  LIG1        0.0627
      6 C           0.1195    2.4666   -0.0004 C.ar    1  LIG1       -0.0141
      7 C           1.5181    2.4458   -0.0008 C.ar    1  LIG1        0.1867
      8 H          -0.4090    3.4165   -0.0003 H       1  LIG1        0.0656
      9 H          -1.9035    1.3287    0.0016 H       1  LIG1        0.0621
     10 C          -0.5710   -1.1111    0.0005 C.3     1  LIG1       -0.0397
     11 H           0.0257   -1.8420    0.5050 H       1  LIG1        0.0278
     12 H          -0.7416   -1.4245   -1.0083 H       1  LIG1        0.0278
     13 H          -1.5088   -1.0063    0.5049 H       1  LIG1        0.0278
     14 O           2.1896    3.5590   -0.0012 O.3     1  LIG1       -0.2873
     15 C           3.5904    3.2714   -0.0014 C.3     2  LIG2       -0.0309
     16 H           4.1427    4.1879   -0.0019 H       1  LIG1        0.0309
     17 H           3.8386    2.7059    0.8724 H       0  HOH0        0.2052
     18 H           3.8381    2.7052   -0.8749 H       0  HOH0        0.2052
     19 C           3.4844    1.1831   -0.0005 C.2     1  LIG1       -0.0014
     20 C           4.4399    0.1882    0.0142 C.2     1  LIG1       -0.0207
     21 C           5.7279    0.8500    0.0034 C.2     1  LIG1        0.0396
     22 C           5.4738    2.2059   -0.0172 C.2     1  LIG1        0.0506
     23 O           4.0977    2.4365   -0.0202 O.3     3  HOH3       -0.4105
     24 C           4.2495   -1.0979    0.0341 C.3     1  LIG1       -0.0374
     25 H           5.0626   -1.5710    0.5439 H       1  LIG1        0.0278
     26 H           4.1951   -1.4660   -0.9692 H       1  LIG1        0.0278
     27 H           3.3341   -1.3151    0.5438 H       1  LIG1        0.0278
     28 N           6.8846    0.2567    0.0119 N.pl3   1  LIG1       -0.3572
     29 H           6.8112   -0.6234   -0.4573 H       1  LIG1        0.1423
     30 H           7.5565    0.8296   -0.4573 H       1  LIG1        0.1423
     31 C           6.1998    3.2842   -0.0341 C.ar    1  LIG1        0.1389
     32 C           7.5516    3.5597   -0.0321 C.ar    1  LIG1       -0.0072
     33 C           7.6810    5.0017   -0.0592 C.ar    1  LIG1        0.0338
     34 C           6.3992    5.5119   -0.0761 C.ar    1  LIG1        0.1633
     35 O           5.4685    4.4725   -0.0612 O.2     1  LIG1       -0.4525
     36 H           8.5364    2.7114   -0.0102 H       1  LIG1        0.0662
     37 N           8.8009    5.6619   -0.0658 N.3     4  LIG4       -0.1629
     38 H           9.5006    5.1265   -0.5389 H       2  LIG2        0.1629
     39 H           8.6714    6.5332   -0.5389 H       3  HOH3        0.0309
     40 C           5.8762    6.7018   -0.1019 C.ar    1  LIG1        0.1299
     41 C           6.4681    7.9256   -0.1032 C.ar    1  LIG1        0.2071
     42 C           5.4244    8.9054   -0.1370 C.ar    1  LIG1        0.0032
     43 C           4.2406    8.2374   -0.1567 C.ar    1  LIG1        0.0060
     44 N           4.5126    6.8880   -0.1348 N.ar    1  LIG1       -0.3552
     45 H           3.8324    6.1632   -0.1423 H       1  LIG1        0.1655
     46 H           3.0203    8.6842   -0.1891 H       1  LIG1        0.0808
     47 O           7.7467    8.1593   -0.0768 O.3     1  LIG1       -0.2855
     48 C           8.4585    6.9191   -0.0672 C.3     5  LIG5       -0.0309
     49 H           9.5108    7.1119   -0.0457 H       6  UNK6        0.0000
     50 H           8.1814    6.3555    0.7992 H       7  UNK7        0.0000
     51 H           8.2160    6.3618   -0.9478 H       8  UNK8        0.0000
     52 H           5.5768   10.1964   -0.1475 H       1  LIG1        0.0671
@<TRIPOS>BOND
     1    12    10    1
     2    26    24    1
     3    18    23    1
     4    39    48    1
     5    38    37    1
     6    30    28    1
     7    29    28    1
     8    46    43    1
     9    43    42   ar
    10    43    44   ar
    11    52    42    1
    12    45    44    1
    13    42    41   ar
    14    44    40   ar
    15    41    40   ar
    16    41    47    1
    17    40    34    1
    18    34    35   ar
    19    34    33   ar
    20    35    31   ar
    21    33    32   ar
    22    31    32   ar
    23    31    22    1
    24    32    36    1
    25    23    17    1
    26    22    21    2
    27    16    15    1
    28    14     7    1
    29     7     6   ar
    30     7     4   ar
    31    19     4    1
    32    19    20    2
    33     6     8    1
    34     6     3   ar
    35     4     2   ar
    36     1     3   ar
    37     1     2   ar
    38     1    10    1
    39     3     9    1
    40     2     5    1
    41    10    13    1
    42    10    11    1
    43    21    28    1
    44    21    20    1
    45    20    24    1
    46    24    27    1
    47    24    25    1
