@<TRIPOS>MOLECULE
mol_data/noopt/geoms/mol2/4il12di6he-6hd.out
 55 54 0 0 0
SMALL
GASTEIGER

@<TRIPOS>ATOM
      1 C           0.0509    0.0309    0.0002 C.ar    1  LIG1       -0.0496
      2 C           1.4592    0.0309    0.0002 C.ar    1  LIG1       -0.0474
      3 C          -0.6045    1.2792    0.0002 C.ar    1  LIG1       -0.0552
      4 C           2.1849    1.2200   -0.0004 C.ar    1  LIG1        0.0309
      5 H           1.9850   -0.9213    0.0004 H       1  LIG1        0.0627
      6 C           0.1195    2.4666   -0.0004 C.ar    1  LIG1       -0.0141
      7 C           1.5181    2.4458   -0.0008 C.ar    1  LIG1        0.1867
      8 H          -0.4090    3.4165   -0.0003 H       1  LIG1        0.0656
      9 H          -1.9035    1.3287    0.0016 H       1  LIG1        0.0621
     10 C          -0.5710   -1.1111    0.0005 C.3     1  LIG1       -0.0397
     11 H           0.0257   -1.8420    0.5050 H       1  LIG1        0.0278
     12 H          -0.7416   -1.4245   -1.0083 H       1  LIG1        0.0278
     13 H          -1.5088   -1.0063    0.5049 H       1  LIG1        0.0278
     14 O           2.1896    3.5590   -0.0012 O.3     1  LIG1       -0.2873
     15 C           3.5904    3.2714   -0.0014 C.3     2  LIG2       -0.0309
     16 H           4.1427    4.1879   -0.0019 H       3  UNK3        0.0000
     17 H           3.8386    2.7059    0.8724 H       0  HOH0        0.2052
     18 H           3.8381    2.7052   -0.8749 H       0  HOH0        0.2052
     19 C           3.4844    1.1831   -0.0005 C.2     1  LIG1        0.0125
     20 C           4.4399    0.1881   -0.0006 C.2     1  LIG1        0.0637
     21 C           5.7279    0.8499   -0.0007 C.2     1  LIG1       -0.0241
     22 C           5.4738    2.2061   -0.0008 C.2     1  LIG1       -0.0023
     23 O           4.0977    2.4367   -0.0007 O.3     4  HOH4       -0.4105
     24 N           4.0816   -2.2321   -0.0004 N.1     1  LIG1       -0.1908
     25 C           4.2495   -1.0979   -0.0005 C.1     1  LIG1        0.1001
     26 C           6.8849    0.2564   -0.0008 C.3     1  LIG1       -0.0379
     27 H           7.6010    0.8709    0.5036 H       1  LIG1        0.0278
     28 H           7.2022    0.0937   -1.0096 H       1  LIG1        0.0278
     29 H           6.8034   -0.6837    0.5036 H       1  LIG1        0.0278
     30 C           5.5902    4.5522   -0.0218 C.ar    1  LIG1        0.1434
     31 C           6.1999    3.2844   -0.0008 C.ar    1  LIG1        0.0253
     32 C           7.5941    3.2154    0.0202 C.ar    1  LIG1       -0.0332
     33 C           8.3258    4.4041    0.0192 C.ar    1  LIG1        0.0514
     34 C           7.6251    5.6240   -0.0029 C.ar    1  LIG1        0.0918
     35 N           6.2806    5.7090   -0.0231 N.ar    1  LIG1       -0.2288
     36 H           8.1059    2.2427    0.0360 H       1  LIG1        0.0638
     37 N           4.2955    4.6679   -0.0417 N.pl3   1  LIG1       -0.2488
     38 H           4.0434    5.5102   -0.5182 H       1  LIG1        0.1715
     39 H           3.8980    3.8837   -0.5182 H       1  LIG1        0.0309
     40 C           9.6256    4.3932    0.0381 C.1     1  LIG1       -0.0675
     41 C          10.8267    4.3831    0.0555 C.1     1  LIG1       -0.1138
     42 H          11.8965    4.3741    0.0710 H       1  LIG1        0.1232
     43 C           7.5520    7.9720   -0.0053 C.ar    1  LIG1        0.1255
     44 C           8.2619    6.7573   -0.0045 C.ar    1  LIG1        0.0423
     45 C           9.6573    6.8007   -0.0053 C.ar    1  LIG1       -0.0304
     46 C          10.2910    8.0446   -0.0070 C.ar    1  LIG1        0.0706
     47 C           9.4941    9.2041   -0.0078 C.ar    1  LIG1        0.0471
     48 N           8.1470    9.1806   -0.0069 N.ar    1  LIG1       -0.2388
     49 H          10.2459    5.8724   -0.0057 H       1  LIG1        0.0638
     50 H          10.0376   10.3850   -0.0093 H       1  LIG1        0.0843
     51 N           6.2520    7.9831   -0.0045 N.pl3   1  LIG1       -0.3426
     52 H           5.9254    8.8024   -0.4757 H       1  LIG1        0.1437
     53 H           5.9114    7.1695   -0.4758 H       1  LIG1        0.1437
     54 N          12.7312    8.2209   -0.0088 N.1     1  LIG1       -0.1908
     55 C          11.5876    8.1383   -0.0079 C.1     1  LIG1        0.1007
@<TRIPOS>BOND
     1    28    26    1
     2    12    10    1
     3    18    23    1
     4    39    15    1
     5    38    37    1
     6    53    51    1
     7    52    51    1
     8    37    30    1
     9    35    30   ar
    10    35    34   ar
    11    30    31   ar
    12    50    47    1
    13    54    55    3
    14    55    46    1
    15    47    46   ar
    16    47    48   ar
    17    46    45   ar
    18    48    43   ar
    19    49    45    1
    20    45    44   ar
    21    43    44   ar
    22    43    51    1
    23    44    34    1
    24    34    33   ar
    25    14     7    1
    26    31    22    1
    27    31    32   ar
    28     7     6   ar
    29     7     4   ar
    30    26    21    1
    31    26    29    1
    32    26    27    1
    33    22    21    2
    34    23    17    1
    35    21    20    1
    36    20    19    2
    37    20    25    1
    38    19     4    1
    39    25    24    3
    40     6     8    1
    41     6     3   ar
    42     4     2   ar
    43     1     3   ar
    44     1     2   ar
    45     1    10    1
    46     3     9    1
    47     2     5    1
    48    10    13    1
    49    10    11    1
    50    33    32   ar
    51    33    40    1
    52    32    36    1
    53    40    41    3
    54    41    42    1
