@<TRIPOS>MOLECULE
mol_data/noopt/geoms/mol2/4il13lh(50)4ed(350)13fe(270).out
 57 57 0 0 0
SMALL
GASTEIGER

@<TRIPOS>ATOM
      1 C           0.0509    0.0309    0.0002 C.ar    1  LIG1       -0.0496
      2 C           1.4592    0.0309    0.0002 C.ar    1  LIG1       -0.0475
      3 C          -0.6045    1.2792    0.0002 C.ar    1  LIG1       -0.0553
      4 C           2.1849    1.2200   -0.0004 C.ar    1  LIG1        0.0283
      5 H           1.9850   -0.9213    0.0004 H       1  LIG1        0.0627
      6 C           0.1195    2.4666   -0.0004 C.ar    1  LIG1       -0.0191
      7 C           1.5181    2.4458   -0.0008 C.ar    1  LIG1        0.1285
      8 H          -0.4090    3.4165   -0.0003 H       1  LIG1        0.0654
      9 H          -1.9035    1.3287    0.0016 H       1  LIG1        0.0621
     10 C          -0.5710   -1.1111    0.0005 C.3     1  LIG1       -0.0397
     11 H           0.0257   -1.8420    0.5050 H       1  LIG1        0.0278
     12 H          -0.7416   -1.4245   -1.0083 H       1  LIG1        0.0278
     13 H          -1.5088   -1.0063    0.5049 H       1  LIG1        0.0278
     14 O           2.1896    3.5590   -0.0012 O.3     1  LIG1       -0.4880
     15 C           3.5904    3.2714   -0.0014 C.3     1  LIG1        0.1235
     16 H           4.1427    4.1879   -0.0019 H       1  LIG1        0.0731
     17 H           3.8386    2.7059    0.8724 H       1  LIG1        0.0731
     18 H           3.8381    2.7052   -0.8749 H       1  LIG1        0.1629
     19 C           3.4844    1.1831   -0.0005 C.2     1  LIG1        0.0405
     20 C           4.3462    0.4609    0.7634 C.2     1  LIG1        0.1497
     21 C           5.6739    0.8026    0.3496 C.2     1  LIG1        0.0759
     22 C           5.5649    1.7172   -0.6502 C.2     1  LIG1        0.0172
     23 N           4.2262    1.9534   -0.8674 N.3     2  LIG2       -0.1629
     24 H           3.8542    2.5801   -1.5434 H       3  UNK3        0.0000
     25 O           4.0213   -0.3825    1.6979 O.2     1  LIG1       -0.4926
     26 C           2.6441   -0.2074    2.0409 C.3     1  LIG1        0.0789
     27 H           2.3770   -0.9019    2.8099 H       1  LIG1        0.0660
     28 H           2.4881    0.7912    2.3923 H       1  LIG1        0.0660
     29 H           2.0366   -0.3806    1.1773 H       1  LIG1        0.0660
     30 N           6.7814    0.3276    0.8373 N.pl3   1  LIG1       -0.3546
     31 H           6.9060   -0.6143    0.5253 H       1  LIG1        0.1424
     32 H           7.5497    0.8864    0.5253 H       1  LIG1        0.1424
     33 C           7.5487    1.5844   -1.8956 C.ar    1  LIG1        0.0331
     34 C           8.5185    2.2879   -2.6359 C.ar    1  LIG1       -0.0353
     35 C           6.4830    2.3235   -1.3425 C.ar    1  LIG1        0.0013
     36 C           8.4327    3.6662   -2.8192 C.ar    1  LIG1        0.0204
     37 H           9.3493    1.7370   -3.0712 H       1  LIG1        0.0637
     38 C           6.3969    3.6995   -1.5252 C.ar    1  LIG1       -0.0347
     39 C           7.3700    4.3803   -2.2642 C.ar    1  LIG1        0.0616
     40 H           5.5656    4.2471   -1.0885 H       1  LIG1        0.0637
     41 C           7.6826    0.2986   -1.7593 C.1     1  LIG1       -0.0690
     42 C           7.8063   -0.8896   -1.6334 C.1     1  LIG1       -0.1139
     43 H           7.9165   -1.9480   -1.5212 H       1  LIG1        0.1232
     44 N           7.2088    6.8012   -2.5790 N.1     1  LIG1       -0.1908
     45 C           7.2844    5.6666   -2.4314 C.1     1  LIG1        0.0998
     46 C           9.3456    4.2837   -3.5085 C.ar    1  LIG1        0.0910
     47 C           9.5103    4.3958   -4.8532 C.ar    1  LIG1        0.1574
     48 C          10.6828    5.1872   -5.0760 C.ar    1  LIG1        0.0839
     49 C          11.1820    5.5254   -3.8576 C.ar    1  LIG1        0.0213
     50 N          10.3667    4.9739   -2.8952 N.ar    1  LIG1       -0.3566
     51 H          10.4945    5.0609   -1.9133 H       1  LIG1        0.1655
     52 H          12.2266    6.2311   -3.5404 H       1  LIG1        0.0820
     53 O           8.7434    3.8771   -5.7659 O.3     1  LIG1       -0.5035
     54 H           9.0613    2.9997   -5.9908 H       1  LIG1        0.2923
     55 C          11.1808    5.5228   -6.2290 C.1     1  LIG1       -0.0645
     56 C          11.6409    5.8329   -7.2944 C.1     1  LIG1       -0.1137
     57 H          12.0507    6.1091   -8.2434 H       1  LIG1        0.1232
@<TRIPOS>BOND
     1    57    56    1
     2    56    55    3
     3    55    48    1
     4    54    53    1
     5    53    47    1
     6    48    47   ar
     7    48    49   ar
     8    47    46   ar
     9    49    52    1
    10    49    50   ar
    11    46    50   ar
    12    46    36    1
    13    37    34    1
    14    50    51    1
    15    36    34   ar
    16    36    39   ar
    17    34    33   ar
    18    44    45    3
    19    45    39    1
    20    39    38   ar
    21    33    41    1
    22    33    35   ar
    23    41    42    3
    24    42    43    1
    25    38    35   ar
    26    38    40    1
    27    35    22    1
    28    12    10    1
    29    18    23    1
    30    22    21    2
    31    16    15    1
    32    15    14    1
    33    15    17    1
    34    14     7    1
    35     7     6   ar
    36     7     4   ar
    37    19     4    1
    38    19    20    2
    39     6     8    1
    40     6     3   ar
    41     4     2   ar
    42     1     2   ar
    43     1     3   ar
    44     1    10    1
    45     2     5    1
    46     3     9    1
    47    10    13    1
    48    10    11    1
    49    21    20    1
    50    21    30    1
    51    32    30    1
    52    31    30    1
    53    20    25    1
    54    29    26    1
    55    25    26    1
    56    26    28    1
    57    26    27    1
