@<TRIPOS>MOLECULE
mol_data/noopt/geoms/mol2/4il13ef(70)6ef(50)4al(330).out
 56 59 0 0 0
SMALL
GASTEIGER

@<TRIPOS>ATOM
      1 C           0.0509    0.0309    0.0002 C.ar    1  LIG1       -0.0496
      2 C           1.4592    0.0309    0.0002 C.ar    1  LIG1       -0.0462
      3 C          -0.6045    1.2792    0.0002 C.ar    1  LIG1       -0.0553
      4 C           2.1849    1.2200   -0.0004 C.ar    1  LIG1        0.0415
      5 H           1.9850   -0.9213    0.0004 H       1  LIG1        0.0628
      6 C           0.1195    2.4666   -0.0004 C.ar    1  LIG1       -0.0190
      7 C           1.5181    2.4458   -0.0008 C.ar    1  LIG1        0.1292
      8 H          -0.4090    3.4165   -0.0003 H       1  LIG1        0.0654
      9 H          -1.9035    1.3287    0.0016 H       1  LIG1        0.0621
     10 C          -0.5710   -1.1111    0.0005 C.3     1  LIG1       -0.0397
     11 H           0.0257   -1.8420    0.5050 H       1  LIG1        0.0278
     12 H          -0.7416   -1.4245   -1.0083 H       1  LIG1        0.0278
     13 H          -1.5088   -1.0063    0.5049 H       1  LIG1        0.0278
     14 O           2.1896    3.5590   -0.0012 O.3     1  LIG1       -0.4945
     15 C           3.5904    3.2714   -0.0014 C.3     1  LIG1        0.0788
     16 H           4.1427    4.1879   -0.0019 H       1  LIG1        0.0660
     17 H           3.8386    2.7059    0.8724 H       1  LIG1        0.0660
     18 H           3.8381    2.7052   -0.8749 H       1  LIG1        0.0660
     19 C           3.4844    1.1831   -0.0005 C.ar    1  LIG1        0.0697
     20 C           4.3552    0.7772    0.9612 C.ar    1  LIG1        0.0920
     21 C           5.6780    0.9475    0.4397 C.ar    1  LIG1        0.1581
     22 C           5.5573    1.4483   -0.8183 C.ar    1  LIG1        0.0930
     23 N           4.2160    1.5945   -1.0917 N.ar    1  LIG1       -0.3501
     24 H           3.8360    1.9414   -1.9422 H       1  LIG1        0.1661
     25 C           4.0413    0.3206    2.1372 C.1     1  LIG1       -0.0638
     26 C           3.7512   -0.1013    3.2238 C.1     1  LIG1       -0.1137
     27 H           3.4927   -0.4771    4.1917 H       1  LIG1        0.1232
     28 O           6.7913    0.6742    1.0530 O.3     1  LIG1       -0.5035
     29 H           7.2814    1.4858    1.2041 H       1  LIG1        0.2923
     30 C           6.1183    2.4731   -2.8563 C.ar    1  LIG1        0.1233
     31 C           6.4673    1.7681   -1.6899 C.ar    1  LIG1        0.0392
     32 C           7.8061    1.4239   -1.4943 C.ar    1  LIG1       -0.0061
     33 C           8.7427    1.7919   -2.4617 C.ar    1  LIG1        0.1434
     34 C           8.2963    2.4958   -3.5952 C.ar    1  LIG1        0.1138
     35 N           7.0088    2.8361   -3.7997 N.ar    1  LIG1       -0.2341
     36 H           8.1164    0.8722   -0.5956 H       1  LIG1        0.0662
     37 C           4.8850    2.8159   -3.0829 C.1     1  LIG1       -0.0491
     38 C           3.7453    3.1327   -3.2922 C.1     1  LIG1       -0.1124
     39 H           2.7302    3.4149   -3.4787 H       1  LIG1        0.1232
     40 O          10.0011    1.4948   -2.3261 O.3     1  LIG1       -0.5046
     41 H          10.5192    2.3023   -2.2927 H       1  LIG1        0.2922
     42 C           9.6058    1.9124   -5.4523 C.ar    1  LIG1       -0.0522
     43 C          10.5088    2.3571   -6.4373 C.ar    1  LIG1       -0.0577
     44 C           9.1303    2.8604   -4.5233 C.ar    1  LIG1        0.0074
     45 C          10.9209    3.6864   -6.4970 C.ar    1  LIG1       -0.0199
     46 H          10.8882    1.6421   -7.1639 H       1  LIG1        0.0619
     47 C           9.5414    4.1876   -4.5824 C.ar    1  LIG1       -0.0107
     48 C          10.4388    4.6100   -5.5687 C.ar    1  LIG1        0.1207
     49 H           9.1606    4.8996   -3.8546 H       1  LIG1        0.0661
     50 H          11.7557    4.0626   -7.4199 H       1  LIG1        0.0654
     51 H           9.2580    0.6598   -5.4476 H       1  LIG1        0.0624
     52 O          10.8197    5.8520   -5.6190 O.3     1  LIG1       -0.4951
     53 C          12.2483    5.9127   -5.6375 C.3     1  LIG1        0.0788
     54 H          12.5614    6.9350   -5.6790 H       1  LIG1        0.0660
     55 H          12.6362    5.4566   -4.7506 H       1  LIG1        0.0660
     56 H          12.6163    5.3918   -6.4966 H       1  LIG1        0.0660
@<TRIPOS>BOND
     1    50    45    1
     2    46    43    1
     3    45    43   ar
     4    45    48   ar
     5    56    53    1
     6    43    42   ar
     7    54    53    1
     8    53    52    1
     9    53    55    1
    10    52    48    1
    11    48    47   ar
    12    42    51    1
    13    42    44   ar
    14    47    44   ar
    15    47    49    1
    16    44    34    1
    17    35    34   ar
    18    35    30   ar
    19    34    33   ar
    20    39    38    1
    21    38    37    3
    22    37    30    1
    23    30    31   ar
    24    33    40    1
    25    33    32   ar
    26    40    41    1
    27    24    23    1
    28    31    32   ar
    29    31    22    1
    30    32    36    1
    31    23    22   ar
    32    23    19   ar
    33    12    10    1
    34    18    15    1
    35    22    21   ar
    36    16    15    1
    37    15    14    1
    38    15    17    1
    39    14     7    1
    40     7     6   ar
    41     7     4   ar
    42    19     4    1
    43    19    20   ar
    44     6     8    1
    45     6     3   ar
    46     4     2   ar
    47     1     3   ar
    48     1     2   ar
    49     1    10    1
    50     3     9    1
    51     2     5    1
    52    10    13    1
    53    10    11    1
    54    21    20   ar
    55    21    28    1
    56    20    25    1
    57    28    29    1
    58    25    26    3
    59    26    27    1
