@<TRIPOS>MOLECULE
mol_data/noopt/geoms/mol2/4il4ih(140)12da(220)4id.out
 56 55 0 0 0
SMALL
GASTEIGER

@<TRIPOS>ATOM
      1 C           0.0509    0.0309    0.0002 C.ar    1  LIG1       -0.0496
      2 C           1.4592    0.0309    0.0002 C.ar    1  LIG1       -0.0474
      3 C          -0.6045    1.2792    0.0002 C.ar    1  LIG1       -0.0552
      4 C           2.1849    1.2200   -0.0004 C.ar    1  LIG1        0.0294
      5 H           1.9850   -0.9213    0.0004 H       1  LIG1        0.0627
      6 C           0.1195    2.4666   -0.0004 C.ar    1  LIG1       -0.0141
      7 C           1.5181    2.4458   -0.0008 C.ar    1  LIG1        0.1867
      8 H          -0.4090    3.4165   -0.0003 H       1  LIG1        0.0656
      9 H          -1.9035    1.3287    0.0016 H       1  LIG1        0.0621
     10 C          -0.5710   -1.1111    0.0005 C.3     1  LIG1       -0.0397
     11 H           0.0257   -1.8420    0.5050 H       1  LIG1        0.0278
     12 H          -0.7416   -1.4245   -1.0083 H       1  LIG1        0.0278
     13 H          -1.5088   -1.0063    0.5049 H       1  LIG1        0.0278
     14 O           2.1896    3.5590   -0.0012 O.3     1  LIG1       -0.2873
     15 C           3.5904    3.2714   -0.0014 C.3     2  LIG2       -0.0531
     16 H           4.1427    4.1879   -0.0019 H       1  LIG1        0.0265
     17 H           3.8386    2.7059    0.8724 H       2  LIG2        0.0309
     18 H           3.8381    2.7052   -0.8749 H       1  LIG1        0.0265
     19 C           4.2131    2.0997    0.7846 C.3     3  LIG3       -0.0309
     20 C           5.6187    2.0197    0.7489 C.2     1  LIG1       -0.0524
     21 C           3.4843    1.1831   -0.0005 C.2     1  LIG1       -0.0084
     22 C           6.2718    1.0694   -0.0328 C.2     1  LIG1        0.0222
     23 H           6.2005    2.7176    1.3470 H       1  LIG1        0.0622
     24 C           4.1358    0.2342   -0.7810 C.2     1  LIG1       -0.0490
     25 C           5.5330    0.1704   -0.8029 C.3     1  LIG1        0.0911
     26 H           3.5515   -0.4615   -1.3778 H       1  LIG1        0.0601
     27 C           3.6608    3.0079    1.5336 C.3     4  LIG4       -0.0681
     28 H           2.9139    2.5548    2.1514 H       3  LIG3        0.0227
     29 H           3.2073    3.7534    0.9144 H       3  LIG3        0.0227
     30 H           4.4067    3.4627    2.1513 H       3  LIG3        0.0227
     31 N           6.1365   -0.7186   -1.5346 N.3     1  LIG1       -0.3158
     32 H           5.4667   -1.1857   -2.1118 H       1  LIG1        0.1194
     33 H           6.8177   -0.2685   -2.1119 H       1  LIG1        0.1194
     34 C           7.5710    1.0237   -0.0420 C.ar    1  LIG1        0.1512
     35 C           8.5771    1.7683   -0.6219 C.ar    1  LIG1        0.0977
     36 C           9.8281    1.1615   -0.2175 C.ar    1  LIG1        0.0022
     37 C           9.5033    0.0858    0.5832 C.ar    1  LIG1        0.1372
     38 O           8.1175   -0.0197    0.7065 O.2     1  LIG1       -0.4537
     39 N           8.3465    3.7351   -2.0588 N.1     1  LIG1       -0.1907
     40 C           8.4546    2.8134   -1.3854 C.1     1  LIG1        0.1030
     41 H          11.0140    1.5715   -0.5576 H       1  LIG1        0.0668
     42 C           9.5472   -2.0383    1.5784 C.ar    1  LIG1       -0.0397
     43 C          10.3132   -2.9901    2.2787 C.ar    1  LIG1       -0.0570
     44 C          10.1714   -0.8234    1.2289 C.ar    1  LIG1        0.0214
     45 C          11.6424   -2.7456    2.6165 C.ar    1  LIG1       -0.0441
     46 H           9.8511   -3.9343    2.5584 H       1  LIG1        0.0621
     47 C          11.4984   -0.5787    1.5659 C.ar    1  LIG1       -0.0334
     48 C          12.2429   -1.5371    2.2614 C.ar    1  LIG1        0.0525
     49 H          11.9572    0.3659    1.2852 H       1  LIG1        0.0637
     50 H          12.3203   -3.6468    3.2633 H       1  LIG1        0.0630
     51 C           8.3116   -2.3239    1.2911 C.3     1  LIG1       -0.0390
     52 H           8.0609   -3.2786    1.7042 H       1  LIG1        0.0278
     53 H           8.1899   -2.3521    0.2284 H       1  LIG1        0.0278
     54 H           7.6673   -1.5761    1.7042 H       1  LIG1        0.0278
     55 N          14.5765   -1.0961    2.8494 N.1     1  LIG1       -0.1909
     56 C          13.4829   -1.3028    2.5738 C.1     1  LIG1        0.0992
@<TRIPOS>BOND
     1    33    31    1
     2    32    31    1
     3    39    40    3
     4    31    25    1
     5    40    35    1
     6    26    24    1
     7    12    10    1
     8    18    15    1
     9    25    24    1
    10    25    22    1
    11    24    21    2
    12    35    36   ar
    13    35    34   ar
    14    41    36    1
    15    36    37   ar
    16    34    22    1
    17    34    38   ar
    18    22    20    2
    19    16    15    1
    20    14     7    1
    21     7     4   ar
    22     7     6   ar
    23    21     4    1
    24     4     2   ar
    25     6     8    1
    26     6     3   ar
    27     3     1   ar
    28     3     9    1
    29     1     2   ar
    30     1    10    1
    31     2     5    1
    32    10    13    1
    33    10    11    1
    34    53    51    1
    35    37    38   ar
    36    37    44    1
    37    20    23    1
    38    19    17    1
    39    29    27    1
    40    44    47   ar
    41    44    42   ar
    42    49    47    1
    43    51    42    1
    44    51    54    1
    45    51    52    1
    46    27    30    1
    47    27    28    1
    48    47    48   ar
    49    42    43   ar
    50    48    56    1
    51    48    45   ar
    52    43    46    1
    53    43    45   ar
    54    56    55    3
    55    45    50    1
