@<TRIPOS>MOLECULE
mol_data/noopt/geoms/mol2/4il4il-4il4il.out
 70 64 0 0 0
SMALL
GASTEIGER

@<TRIPOS>ATOM
      1 C           0.0509    0.0309    0.0002 C.ar    1  LIG1       -0.0496
      2 C           1.4592    0.0309    0.0002 C.ar    1  LIG1       -0.0476
      3 C          -0.6045    1.2792    0.0002 C.ar    1  LIG1       -0.0554
      4 C           2.1849    1.2200   -0.0004 C.ar    1  LIG1        0.0242
      5 H           1.9850   -0.9213    0.0004 H       1  LIG1        0.0627
      6 C           0.1195    2.4666   -0.0004 C.ar    1  LIG1       -0.0193
      7 C           1.5181    2.4458   -0.0008 C.ar    1  LIG1        0.1246
      8 H          -0.4090    3.4165   -0.0003 H       1  LIG1        0.0654
      9 H          -1.9035    1.3287    0.0016 H       1  LIG1        0.0621
     10 C          -0.5710   -1.1111    0.0005 C.3     1  LIG1       -0.0397
     11 H           0.0257   -1.8420    0.5050 H       1  LIG1        0.0278
     12 H          -0.7416   -1.4245   -1.0083 H       1  LIG1        0.0278
     13 H          -1.5088   -1.0063    0.5049 H       1  LIG1        0.0278
     14 O           2.1896    3.5590   -0.0012 O.3     1  LIG1       -0.5062
     15 C           3.5904    3.2714   -0.0014 C.3     2  LIG2        0.0000
     16 H           4.1427    4.1879   -0.0019 H       2  LIG2        0.0309
     17 H           3.8386    2.7059    0.8724 H       1  LIG1        0.0310
     18 H           3.8381    2.7052   -0.8749 H       1  LIG1        0.0310
     19 C           4.2212    2.3851    0.0002 C.3     1  LIG1       -0.0306
     20 C           5.6264    2.2916    0.0016 C.2     1  LIG1       -0.0768
     21 C           3.4843    1.1831   -0.0005 C.2     1  LIG1       -0.0076
     22 C           6.2715    1.0569    0.0017 C.2     1  LIG1       -0.0052
     23 H           6.2143    3.2067    0.0024 H       1  LIG1        0.0576
     24 C           4.1278   -0.0498   -0.0004 C.2     1  LIG1       -0.0366
     25 C           5.5247   -0.1219    0.0006 C.3     1  LIG1        0.1464
     26 H           3.5374   -0.9625   -0.0009 H       1  LIG1        0.0611
     27 C           3.6765    3.5659   -0.0001 C.3     3  LIG3       -0.0309
     28 H           2.7338    3.5239    0.5043 H       1  LIG1        0.2922
     29 H           3.5272    3.8895   -1.0090 H       4  UNK4        0.0000
     30 H           4.3204    4.2558    0.5042 H       5  UNK5        0.0000
     31 O           6.1208   -1.2773    0.0008 O.3     1  LIG1       -0.3763
     32 C           5.1417   -2.3195    0.0008 C.3     6  LIG6       -0.0681
     33 H           5.6327   -3.2702    0.0009 H       3  LIG3        0.0227
     34 H           4.5298   -2.2340    0.8745 H       3  LIG3        0.0227
     35 H           4.5298   -2.2341   -0.8728 H       3  LIG3        0.0227
     36 C           8.2259   -0.2409    0.0043 C.ar    1  LIG1       -0.0388
     37 C           9.6342   -0.2409    0.0071 C.ar    1  LIG1       -0.0466
     38 C           7.5705    1.0074    0.0029 C.ar    1  LIG1       -0.0122
     39 C          10.3599    0.9482    0.0079 C.ar    1  LIG1        0.0296
     40 H          10.1600   -1.1931    0.0084 H       1  LIG1        0.0628
     41 C           8.2945    2.1948    0.0036 C.ar    1  LIG1       -0.0066
     42 C           9.6931    2.1740    0.0060 C.ar    1  LIG1        0.1872
     43 H           7.7660    3.1447    0.0026 H       1  LIG1        0.0662
     44 C           7.6040   -1.3829    0.0034 C.3     1  LIG1       -0.0231
     45 H           8.2005   -2.1142    0.5076 H       1  LIG1        0.0316
     46 H           7.4338   -1.6956   -1.0056 H       1  LIG1        0.0316
     47 H           6.6660   -1.2785    0.5076 H       1  LIG1        0.2112
     48 O          10.3646    3.2872    0.0069 O.3     1  LIG1       -0.2872
     49 C          11.7654    2.9996    0.0071 C.3     4  UNK4       -0.0348
     50 H          12.3177    3.9160    0.0077 H       4  UNK4        0.0306
     51 H          12.0131    2.4334    0.8807 H       4  UNK4        0.0268
     52 H          12.0136    2.4341   -0.8666 H       4  UNK4        0.0268
     53 C          12.3268   -0.3306    0.0125 C.2     1  LIG1       -0.0564
     54 C          13.7350   -0.3169    0.0167 C.3     1  LIG1        0.0127
     55 C          11.6593    0.9113    0.0104 C.2     1  LIG1       -0.0069
     56 C          14.4491    0.8791    0.0181 C.2     1  LIG1       -0.0307
     57 H          14.2700   -1.2640    0.0186 H       1  LIG1        0.0398
     58 C          12.3718    2.1056    0.0118 C.3     4  UNK4       -0.0494
     59 C          13.7705    2.0984    0.0156 C.2     1  LIG1        0.1579
     60 H          11.8341    3.0504    0.0102 H       7  UNK7        0.0000
     61 H          15.7489    0.8548    0.0219 H       1  LIG1        0.0616
     62 C          11.7160   -1.4785    0.0110 C.3     1  LIG1       -0.0423
     63 H          12.3194   -2.2043    0.5151 H       1  LIG1        0.0275
     64 H          11.5490   -1.7925   -0.9982 H       1  LIG1        0.0275
     65 H          10.7769   -1.3835    0.5150 H       1  LIG1        0.0275
     66 O          14.4311    3.2181    0.0171 O.2     1  LIG1       -0.4918
     67 C          15.8347    2.9441    0.0176 C.3     1  LIG1        0.0789
     68 H          16.3780    3.8659    0.0186 H       1  LIG1        0.0660
     69 H          16.0877    2.3799    0.8909 H       1  LIG1        0.0660
     70 H          16.0885    2.3814   -0.8564 H       1  LIG1        0.0660
@<TRIPOS>BOND
     1    12    10    1
     2    46    44    1
     3    64    62    1
     4    18    19    1
     5    35    32    1
     6    52    58    1
     7    70    67    1
     8    16    27    1
     9    14     7    1
    10    14    28    1
    11    26    24    1
    12     7     6   ar
    13     7     4   ar
    14    21    24    2
    15    21     4    1
    16    24    25    1
    17     6     8    1
    18     6     3   ar
    19     4     2   ar
    20    19    20    1
    21    19    17    1
    22     1     2   ar
    23     1     3   ar
    24     1    10    1
    25     2     5    1
    26     3     9    1
    27    10    13    1
    28    10    11    1
    29    25    31    1
    30    25    22    1
    31    31    47    1
    32    32    33    1
    33    32    34    1
    34    20    22    2
    35    20    23    1
    36    22    38    1
    37    43    41    1
    38    38    41   ar
    39    38    36   ar
    40    44    36    1
    41    44    45    1
    42    41    42   ar
    43    36    37   ar
    44    42    48    1
    45    42    39   ar
    46    37    39   ar
    47    37    40    1
    48    49    50    1
    49    49    58    1
    50    39    55    1
    51    55    53    2
    52    62    53    1
    53    62    65    1
    54    62    63    1
    55    58    51    1
    56    53    54    1
    57    59    66    1
    58    59    56    2
    59    54    56    1
    60    54    57    1
    61    66    67    1
    62    67    68    1
    63    67    69    1
    64    56    61    1
