@<TRIPOS>MOLECULE
mol_data/noopt/geoms/mol2/4il4il4il-4il.out
 70 64 0 0 0
SMALL
GASTEIGER

@<TRIPOS>ATOM
      1 C           0.0509    0.0309    0.0002 C.ar    1  LIG1       -0.0496
      2 C           1.4592    0.0309    0.0002 C.ar    1  LIG1       -0.0474
      3 C          -0.6045    1.2792    0.0002 C.ar    1  LIG1       -0.0552
      4 C           2.1849    1.2200   -0.0004 C.ar    1  LIG1        0.0296
      5 H           1.9850   -0.9213    0.0004 H       1  LIG1        0.0627
      6 C           0.1195    2.4666   -0.0004 C.ar    1  LIG1       -0.0141
      7 C           1.5181    2.4458   -0.0008 C.ar    1  LIG1        0.1867
      8 H          -0.4090    3.4165   -0.0003 H       1  LIG1        0.0656
      9 H          -1.9035    1.3287    0.0016 H       1  LIG1        0.0621
     10 C          -0.5710   -1.1111    0.0005 C.3     1  LIG1       -0.0397
     11 H           0.0257   -1.8420    0.5050 H       1  LIG1        0.0278
     12 H          -0.7416   -1.4245   -1.0083 H       1  LIG1        0.0278
     13 H          -1.5088   -1.0063    0.5049 H       1  LIG1        0.0278
     14 O           2.1896    3.5590   -0.0012 O.3     1  LIG1       -0.2873
     15 C           3.5904    3.2714   -0.0014 C.3     1  LIG1       -0.0348
     16 H           4.1427    4.1879   -0.0019 H       1  LIG1        0.0306
     17 H           3.8386    2.7059    0.8724 H       1  LIG1        0.0268
     18 H           3.8381    2.7052   -0.8749 H       1  LIG1        0.0268
     19 C           4.1518   -0.0588    0.0002 C.2     1  LIG1       -0.0562
     20 C           5.5600   -0.0451    0.0016 C.3     1  LIG1        0.0159
     21 C           3.4843    1.1831   -0.0005 C.2     1  LIG1       -0.0069
     22 C           6.2742    1.1510    0.0017 C.2     1  LIG1       -0.0163
     23 H           6.0950   -0.9922    0.0024 H       1  LIG1        0.0401
     24 C           4.1968    2.3775   -0.0004 C.3     1  LIG1       -0.0494
     25 C           5.5955    2.3702    0.0006 C.3     1  LIG1        0.1593
     26 H           3.6591    3.3222   -0.0009 H       2  UNK2        0.0000
     27 C           3.5410   -1.2067   -0.0001 C.3     1  LIG1       -0.0423
     28 H           4.1447   -1.9321    0.5043 H       1  LIG1        0.0275
     29 H           3.3736   -1.5215   -1.0090 H       1  LIG1        0.0275
     30 H           2.6021   -1.1113    0.5042 H       1  LIG1        0.0275
     31 O           6.2562    3.4899    0.0008 O.3     1  LIG1       -0.3775
     32 C           7.6597    3.2159    0.0008 C.3     3  LIG3        0.0000
     33 H           8.2031    4.1377    0.0008 H       3  LIG3        0.0309
     34 H           7.9131    2.6525    0.8745 H       1  LIG1        0.0311
     35 H           7.9131    2.6525   -0.8728 H       1  LIG1        0.0311
     36 C           8.2991    2.3358    0.0043 C.3     1  LIG1       -0.0303
     37 C           9.7051    2.2559    0.0071 C.2     1  LIG1       -0.0725
     38 C           7.5739    1.1267    0.0029 C.2     1  LIG1       -0.0115
     39 C          10.3621    1.0275    0.0079 C.2     1  LIG1        0.0200
     40 H          10.2841    3.1767    0.0084 H       1  LIG1        0.0579
     41 C           8.2293   -0.0999    0.0037 C.2     1  LIG1       -0.0118
     42 C           9.6269   -0.1585    0.0061 C.2     1  LIG1        0.1248
     43 H           7.6478   -1.0183    0.0026 H       1  LIG1        0.0660
     44 C           7.7430    3.5112    0.0034 C.3     4  LIG4       -0.0309
     45 H           6.8006    3.4603    0.5076 H       1  LIG1        0.2109
     46 H           7.5906    3.8330   -1.0057 H       5  UNK5        0.0000
     47 H           8.3801    4.2075    0.5075 H       6  UNK6        0.0000
     48 O          10.2341   -1.3080    0.0069 O.2     1  LIG1       -0.5062
     49 C           9.2651   -2.3597    0.0072 C.3     7  LIG7       -0.0681
     50 H           9.7653   -3.3056    0.0077 H       4  LIG4        0.0227
     51 H           8.6523   -2.2798    0.8807 H       4  LIG4        0.0227
     52 H           8.6527   -2.2806   -0.8666 H       4  LIG4        0.0227
     53 C          12.3290   -0.2513    0.0125 C.ar    1  LIG1       -0.0390
     54 C          13.7373   -0.2376    0.0167 C.ar    1  LIG1       -0.0545
     55 C          11.6616    0.9906    0.0104 C.ar    1  LIG1       -0.0081
     56 C          14.4514    0.9585    0.0181 C.ar    1  LIG1       -0.0197
     57 H          14.2723   -1.1847    0.0186 H       1  LIG1        0.0622
     58 C          12.3740    2.1850    0.0118 C.ar    1  LIG1       -0.0119
     59 C          13.7727    2.1777    0.0156 C.ar    1  LIG1        0.1207
     60 H          11.8363    3.1297    0.0102 H       1  LIG1        0.0660
     61 H          15.7512    0.9342    0.0219 H       1  LIG1        0.0654
     62 C          11.7182   -1.3992    0.0110 C.3     1  LIG1       -0.0231
     63 H          12.3217   -2.1250    0.5151 H       1  LIG1        0.0316
     64 H          11.5513   -1.7132   -0.9982 H       1  LIG1        0.0316
     65 H          10.7792   -1.3042    0.5150 H       1  LIG1        0.2922
     66 O          14.4334    3.2974    0.0171 O.3     1  LIG1       -0.4951
     67 C          15.8369    3.0234    0.0176 C.3     1  LIG1        0.0788
     68 H          16.3803    3.9452    0.0186 H       1  LIG1        0.0660
     69 H          16.0899    2.4593    0.8909 H       1  LIG1        0.0660
     70 H          16.0908    2.4607   -0.8564 H       1  LIG1        0.0660
@<TRIPOS>BOND
     1    29    27    1
     2    12    10    1
     3    64    62    1
     4    18    24    1
     5    35    36    1
     6    52    49    1
     7    70    67    1
     8    16    15    1
     9    15    24    1
    10    14     7    1
    11     7     6   ar
    12     7     4   ar
    13    21     4    1
    14    21    19    2
    15    24    17    1
    16     6     8    1
    17     6     3   ar
    18     4     2   ar
    19    27    19    1
    20    27    30    1
    21    27    28    1
    22     1     2   ar
    23     1     3   ar
    24     1    10    1
    25     2     5    1
    26     3     9    1
    27    19    20    1
    28    10    13    1
    29    10    11    1
    30    25    31    1
    31    25    22    1
    32    31    45    1
    33    33    44    1
    34    20    22    1
    35    20    23    1
    36    22    38    2
    37    43    41    1
    38    38    41    1
    39    41    42    2
    40    36    37    1
    41    36    34    1
    42    42    48    1
    43    42    39    1
    44    48    65    1
    45    37    39    2
    46    37    40    1
    47    49    50    1
    48    49    51    1
    49    39    55    1
    50    60    58    1
    51    55    58   ar
    52    55    53   ar
    53    62    53    1
    54    62    63    1
    55    58    59   ar
    56    53    54   ar
    57    59    66    1
    58    59    56   ar
    59    54    56   ar
    60    54    57    1
    61    66    67    1
    62    67    68    1
    63    67    69    1
    64    56    61    1
