@<TRIPOS>MOLECULE
mol_data/noopt/geoms/mol2/4il4il-4il-4il.out
 70 67 0 0 0
SMALL
GASTEIGER

@<TRIPOS>ATOM
      1 C           0.0509    0.0309    0.0002 C.ar    1  LIG1       -0.0496
      2 C           1.4592    0.0309    0.0002 C.ar    1  LIG1       -0.0476
      3 C          -0.6045    1.2792    0.0002 C.ar    1  LIG1       -0.0554
      4 C           2.1849    1.2200   -0.0004 C.ar    1  LIG1        0.0242
      5 H           1.9850   -0.9213    0.0004 H       1  LIG1        0.0627
      6 C           0.1195    2.4666   -0.0004 C.ar    1  LIG1       -0.0193
      7 C           1.5181    2.4458   -0.0008 C.ar    1  LIG1        0.1246
      8 H          -0.4090    3.4165   -0.0003 H       1  LIG1        0.0654
      9 H          -1.9035    1.3287    0.0016 H       1  LIG1        0.0621
     10 C          -0.5710   -1.1111    0.0005 C.3     1  LIG1       -0.0397
     11 H           0.0257   -1.8420    0.5050 H       1  LIG1        0.0278
     12 H          -0.7416   -1.4245   -1.0083 H       1  LIG1        0.0278
     13 H          -1.5088   -1.0063    0.5049 H       1  LIG1        0.0278
     14 O           2.1896    3.5590   -0.0012 O.3     1  LIG1       -0.5062
     15 C           3.5904    3.2714   -0.0014 C.3     2  LIG2        0.0000
     16 H           4.1427    4.1879   -0.0019 H       2  LIG2        0.0309
     17 H           3.8386    2.7059    0.8724 H       1  LIG1        0.0310
     18 H           3.8381    2.7052   -0.8749 H       1  LIG1        0.0310
     19 C           4.2212    2.3851    0.0002 C.3     1  LIG1       -0.0306
     20 C           5.6264    2.2916    0.0016 C.2     1  LIG1       -0.0768
     21 C           3.4843    1.1831   -0.0005 C.2     1  LIG1       -0.0076
     22 C           6.2715    1.0569    0.0017 C.2     1  LIG1       -0.0050
     23 H           6.2143    3.2067    0.0024 H       1  LIG1        0.0576
     24 C           4.1278   -0.0498   -0.0004 C.2     1  LIG1       -0.0363
     25 C           5.5247   -0.1219    0.0006 C.3     1  LIG1        0.1497
     26 H           3.5374   -0.9625   -0.0009 H       1  LIG1        0.0611
     27 C           3.6765    3.5659   -0.0001 C.3     3  LIG3       -0.0309
     28 H           2.7338    3.5239    0.5043 H       1  LIG1        0.2922
     29 H           3.5272    3.8895   -1.0090 H       4  UNK4        0.0000
     30 H           4.3204    4.2558    0.5042 H       5  UNK5        0.0000
     31 O           6.1208   -1.2773    0.0008 O.3     1  LIG1       -0.3643
     32 C           5.1417   -2.3195    0.0008 C.3     1  LIG1        0.0382
     33 H           5.6327   -3.2702    0.0009 H       1  LIG1        0.0524
     34 H           4.5298   -2.2340    0.8745 H       1  LIG1        0.0524
     35 H           4.5298   -2.2341   -0.8728 H       1  LIG1        0.0524
     36 C           8.3190    2.2022    0.0043 C.ar    1  LIG1       -0.0422
     37 C           9.7232    2.0950    0.0071 C.ar    1  LIG1       -0.0470
     38 C           7.5705    1.0074    0.0029 C.ar    1  LIG1       -0.0126
     39 C          10.3563    0.8541    0.0079 C.ar    1  LIG1        0.0242
     40 H          10.3199    3.0044    0.0084 H       1  LIG1        0.0628
     41 C           8.2020   -0.2317    0.0037 C.ar    1  LIG1       -0.0118
     42 C           9.5982   -0.3174    0.0061 C.ar    1  LIG1        0.1251
     43 H           7.6028   -1.1386    0.0026 H       1  LIG1        0.0660
     44 C           7.7858    3.3882    0.0034 C.3     1  LIG1       -0.0391
     45 H           6.8426    3.3556    0.5076 H       1  LIG1        0.0278
     46 H           7.6398    3.7128   -1.0057 H       1  LIG1        0.0278
     47 H           8.4363    4.0720    0.5075 H       1  LIG1        0.0278
     48 O          10.1830   -1.4784    0.0069 O.3     1  LIG1       -0.5061
     49 C           9.1938   -2.5111    0.0072 C.3     6  LIG6       -0.0681
     50 H           9.6755   -3.4665    0.0077 H       3  LIG3        0.0227
     51 H           8.5826   -2.4194    0.8807 H       3  LIG3        0.0227
     52 H           8.5830   -2.4202   -0.8666 H       3  LIG3        0.0227
     53 C          12.2980   -0.4626    0.0125 C.ar    1  LIG1       -0.0390
     54 C          13.7062   -0.4762    0.0167 C.ar    1  LIG1       -0.0545
     55 C          11.6548    0.7920    0.0104 C.ar    1  LIG1       -0.0078
     56 C          14.4434    0.7058    0.0181 C.ar    1  LIG1       -0.0197
     57 H          14.2228   -1.4335    0.0186 H       1  LIG1        0.0622
     58 C          12.3902    1.9724    0.0118 C.ar    1  LIG1       -0.0119
     59 C          13.7886    1.9380    0.0156 C.ar    1  LIG1        0.1207
     60 H          11.8710    2.9273    0.0102 H       1  LIG1        0.0660
     61 H          15.7425    0.6563    0.0219 H       1  LIG1        0.0654
     62 C          11.6651   -1.5984    0.0110 C.3     1  LIG1       -0.0231
     63 H          12.2543   -2.3357    0.5151 H       1  LIG1        0.0316
     64 H          11.4921   -1.9091   -0.9982 H       1  LIG1        0.0316
     65 H          10.7280   -1.4852    0.5150 H       1  LIG1        0.2922
     66 O          14.4708    3.0446    0.0171 O.3     1  LIG1       -0.4951
     67 C          15.8688    2.7435    0.0176 C.3     1  LIG1        0.0788
     68 H          16.4299    3.6545    0.0186 H       1  LIG1        0.0660
     69 H          16.1108    2.1745    0.8909 H       1  LIG1        0.0660
     70 H          16.1117    2.1760   -0.8564 H       1  LIG1        0.0660
@<TRIPOS>BOND
     1    12    10    1
     2    46    44    1
     3    64    62    1
     4    18    19    1
     5    35    32    1
     6    52    49    1
     7    70    67    1
     8    16    27    1
     9    14     7    1
    10    14    28    1
    11    26    24    1
    12     7     6   ar
    13     7     4   ar
    14    21    24    2
    15    21     4    1
    16    24    25    1
    17     6     8    1
    18     6     3   ar
    19     4     2   ar
    20    19    20    1
    21    19    17    1
    22     1     2   ar
    23     1     3   ar
    24     1    10    1
    25     2     5    1
    26     3     9    1
    27    10    13    1
    28    10    11    1
    29    25    31    1
    30    25    22    1
    31    31    32    1
    32    32    33    1
    33    32    34    1
    34    20    22    2
    35    20    23    1
    36    22    38    1
    37    43    41    1
    38    38    41   ar
    39    38    36   ar
    40    44    36    1
    41    44    47    1
    42    44    45    1
    43    41    42   ar
    44    36    37   ar
    45    42    48    1
    46    42    39   ar
    47    48    65    1
    48    37    39   ar
    49    37    40    1
    50    49    50    1
    51    49    51    1
    52    39    55    1
    53    60    58    1
    54    55    58   ar
    55    55    53   ar
    56    62    53    1
    57    62    63    1
    58    58    59   ar
    59    53    54   ar
    60    59    66    1
    61    59    56   ar
    62    54    56   ar
    63    54    57    1
    64    66    67    1
    65    67    68    1
    66    67    69    1
    67    56    61    1
