@<TRIPOS>MOLECULE
mol_data/noopt/geoms/mol2/4il4il4il4il.out
 70 64 0 0 0
SMALL
GASTEIGER

@<TRIPOS>ATOM
      1 C           0.0509    0.0309    0.0002 C.ar    1  LIG1       -0.0496
      2 C           1.4592    0.0309    0.0002 C.ar    1  LIG1       -0.0474
      3 C          -0.6045    1.2792    0.0002 C.ar    1  LIG1       -0.0552
      4 C           2.1849    1.2200   -0.0004 C.ar    1  LIG1        0.0296
      5 H           1.9850   -0.9213    0.0004 H       1  LIG1        0.0627
      6 C           0.1195    2.4666   -0.0004 C.ar    1  LIG1       -0.0141
      7 C           1.5181    2.4458   -0.0008 C.ar    1  LIG1        0.1867
      8 H          -0.4090    3.4165   -0.0003 H       1  LIG1        0.0656
      9 H          -1.9035    1.3287    0.0016 H       1  LIG1        0.0621
     10 C          -0.5710   -1.1111    0.0005 C.3     1  LIG1       -0.0397
     11 H           0.0257   -1.8420    0.5050 H       1  LIG1        0.0278
     12 H          -0.7416   -1.4245   -1.0083 H       1  LIG1        0.0278
     13 H          -1.5088   -1.0063    0.5049 H       1  LIG1        0.0278
     14 O           2.1896    3.5590   -0.0012 O.3     1  LIG1       -0.2873
     15 C           3.5904    3.2714   -0.0014 C.3     1  LIG1       -0.0348
     16 H           4.1427    4.1879   -0.0019 H       1  LIG1        0.0306
     17 H           3.8386    2.7059    0.8724 H       1  LIG1        0.0268
     18 H           3.8381    2.7052   -0.8749 H       1  LIG1        0.0268
     19 C           4.1518   -0.0588    0.0002 C.2     1  LIG1       -0.0562
     20 C           5.5600   -0.0451    0.0016 C.3     1  LIG1        0.0160
     21 C           3.4843    1.1831   -0.0005 C.2     1  LIG1       -0.0069
     22 C           6.2742    1.1510    0.0017 C.2     1  LIG1       -0.0125
     23 H           6.0950   -0.9922    0.0024 H       1  LIG1        0.0401
     24 C           4.1968    2.3775   -0.0004 C.3     1  LIG1       -0.0494
     25 C           5.5955    2.3702    0.0006 C.3     1  LIG1        0.2044
     26 H           3.6591    3.3222   -0.0009 H       2  UNK2        0.0000
     27 C           3.5410   -1.2067   -0.0001 C.3     1  LIG1       -0.0423
     28 H           4.1447   -1.9321    0.5043 H       1  LIG1        0.0275
     29 H           3.3736   -1.5215   -1.0090 H       1  LIG1        0.0275
     30 H           2.6021   -1.1113    0.5042 H       1  LIG1        0.0275
     31 O           6.2562    3.4899    0.0008 O.3     1  LIG1       -0.2155
     32 C           7.6597    3.2159    0.0008 C.3     2  UNK2       -0.0348
     33 H           8.2031    4.1377    0.0008 H       2  UNK2        0.0306
     34 H           7.9131    2.6525    0.8745 H       2  UNK2        0.0268
     35 H           7.9131    2.6525   -0.8728 H       2  UNK2        0.0268
     36 C           8.2534   -0.1087    0.0043 C.2     1  LIG1       -0.0423
     37 C           9.6614   -0.0814    0.0071 C.2     1  LIG1       -0.0514
     38 C           7.5739    1.1267    0.0029 C.2     1  LIG1       -0.0118
     39 C          10.3639    1.1216    0.0079 C.2     1  LIG1        0.0022
     40 H          10.2056   -1.0232    0.0084 H       1  LIG1        0.0624
     41 C           8.2747    2.3279    0.0036 C.3     2  UNK2       -0.0494
     42 C           9.6734    2.3342    0.0060 C.3     1  LIG1        0.2080
     43 H           7.7279    3.2674    0.0026 H       3  UNK3        0.0000
     44 C           7.6537   -1.2625    0.0034 C.3     1  LIG1       -0.0391
     45 H           8.2643   -1.9821    0.5076 H       1  LIG1        0.0278
     46 H           7.4896   -1.5784   -1.0056 H       1  LIG1        0.0278
     47 H           6.7139   -1.1763    0.5076 H       1  LIG1        0.0278
     48 O          10.3232    3.4602    0.0069 O.3     1  LIG1       -0.2152
     49 C          11.7293    3.1999    0.0071 C.3     3  UNK3       -0.0348
     50 H          12.2637    4.1269    0.0077 H       3  UNK3        0.0306
     51 H          11.9880    2.6386    0.8807 H       3  UNK3        0.0268
     52 H          11.9884    2.6393   -0.8666 H       3  UNK3        0.0268
     53 C          12.3552   -0.1188    0.0125 C.2     1  LIG1       -0.0423
     54 C          13.7629   -0.0778    0.0167 C.2     1  LIG1       -0.0547
     55 C          11.6638    1.1099    0.0104 C.2     1  LIG1       -0.0081
     56 C          14.4537    1.1319    0.0181 C.2     1  LIG1       -0.0160
     57 H          14.3162   -1.0143    0.0186 H       1  LIG1        0.0622
     58 C          12.3529    2.3179    0.0118 C.3     3  UNK3       -0.0494
     59 C          13.7515    2.3378    0.0156 C.2     1  LIG1        0.1615
     60 H          11.7970    3.2520    0.0102 H       4  UNK4        0.0000
     61 H          15.7537    1.1328    0.0219 H       1  LIG1        0.0655
     62 C          11.7668   -1.2784    0.0110 C.3     1  LIG1       -0.0391
     63 H          12.3842   -1.9923    0.5151 H       1  LIG1        0.0278
     64 H          11.6060   -1.5955   -0.9982 H       1  LIG1        0.0278
     65 H          10.8261   -1.2015    0.5150 H       1  LIG1        0.0278
     66 O          14.3904    3.4700    0.0171 O.2     1  LIG1       -0.4915
     67 C          15.7989    3.2233    0.0176 C.3     1  LIG1        0.0790
     68 H          16.3243    4.1555    0.0186 H       1  LIG1        0.0660
     69 H          16.0628    2.6642    0.8909 H       1  LIG1        0.0660
     70 H          16.0637    2.6657   -0.8564 H       1  LIG1        0.0660
@<TRIPOS>BOND
     1    29    27    1
     2    12    10    1
     3    46    44    1
     4    64    62    1
     5    18    24    1
     6    35    41    1
     7    52    58    1
     8    70    67    1
     9    16    15    1
    10    15    24    1
    11    14     7    1
    12     7     6   ar
    13     7     4   ar
    14    21     4    1
    15    21    19    2
    16    24    17    1
    17     6     8    1
    18     6     3   ar
    19     4     2   ar
    20    27    19    1
    21    27    30    1
    22    27    28    1
    23     1     2   ar
    24     1     3   ar
    25     1    10    1
    26     2     5    1
    27     3     9    1
    28    19    20    1
    29    10    13    1
    30    10    11    1
    31    25    31    1
    32    25    22    1
    33    32    33    1
    34    32    41    1
    35    20    22    1
    36    20    23    1
    37    22    38    2
    38    38    36    1
    39    44    36    1
    40    44    47    1
    41    44    45    1
    42    41    34    1
    43    36    37    2
    44    42    48    1
    45    42    39    1
    46    37    39    1
    47    37    40    1
    48    49    50    1
    49    49    58    1
    50    39    55    2
    51    55    53    1
    52    62    53    1
    53    62    65    1
    54    62    63    1
    55    58    51    1
    56    53    54    2
    57    59    66    1
    58    59    56    2
    59    54    56    1
    60    54    57    1
    61    66    67    1
    62    67    68    1
    63    67    69    1
    64    56    61    1
