@<TRIPOS>MOLECULE
mol_data/noopt/geoms/mol2/4il4il.out
 36 34 0 0 0
SMALL
GASTEIGER

@<TRIPOS>ATOM
      1 C           0.0509    0.0309    0.0002 C.ar    1  LIG1       -0.0496
      2 C           1.4592    0.0309    0.0002 C.ar    1  LIG1       -0.0474
      3 C          -0.6045    1.2792    0.0002 C.ar    1  LIG1       -0.0552
      4 C           2.1849    1.2200   -0.0004 C.ar    1  LIG1        0.0296
      5 H           1.9850   -0.9213    0.0004 H       1  LIG1        0.0627
      6 C           0.1195    2.4666   -0.0004 C.ar    1  LIG1       -0.0141
      7 C           1.5181    2.4458   -0.0008 C.ar    1  LIG1        0.1867
      8 H          -0.4090    3.4165   -0.0003 H       1  LIG1        0.0656
      9 H          -1.9035    1.3287    0.0016 H       1  LIG1        0.0621
     10 C          -0.5710   -1.1111    0.0005 C.3     1  LIG1       -0.0397
     11 H           0.0257   -1.8420    0.5050 H       1  LIG1        0.0278
     12 H          -0.7416   -1.4245   -1.0083 H       1  LIG1        0.0278
     13 H          -1.5088   -1.0063    0.5049 H       1  LIG1        0.0278
     14 O           2.1896    3.5590   -0.0012 O.3     1  LIG1       -0.2873
     15 C           3.5904    3.2714   -0.0014 C.3     1  LIG1       -0.0348
     16 H           4.1427    4.1879   -0.0019 H       1  LIG1        0.0306
     17 H           3.8386    2.7059    0.8724 H       1  LIG1        0.0268
     18 H           3.8381    2.7052   -0.8749 H       1  LIG1        0.0268
     19 C           4.1518   -0.0588    0.0002 C.2     1  LIG1       -0.0564
     20 C           5.5600   -0.0451    0.0016 C.3     1  LIG1        0.0127
     21 C           3.4843    1.1831   -0.0005 C.2     1  LIG1       -0.0069
     22 C           6.2742    1.1510    0.0017 C.2     1  LIG1       -0.0307
     23 H           6.0950   -0.9922    0.0024 H       1  LIG1        0.0398
     24 C           4.1968    2.3775   -0.0004 C.3     1  LIG1       -0.0494
     25 C           5.5955    2.3702    0.0006 C.2     1  LIG1        0.1579
     26 H           3.6591    3.3222   -0.0009 H       2  UNK2        0.0000
     27 H           7.5740    1.1267    0.0029 H       1  LIG1        0.0616
     28 C           3.5410   -1.2067   -0.0001 C.3     1  LIG1       -0.0423
     29 H           4.1447   -1.9321    0.5043 H       1  LIG1        0.0275
     30 H           3.3736   -1.5215   -1.0090 H       1  LIG1        0.0275
     31 H           2.6021   -1.1113    0.5042 H       1  LIG1        0.0275
     32 O           6.2562    3.4899    0.0008 O.2     1  LIG1       -0.4918
     33 C           7.6597    3.2159    0.0008 C.3     1  LIG1        0.0789
     34 H           8.2031    4.1377    0.0008 H       1  LIG1        0.0660
     35 H           7.9131    2.6525    0.8745 H       1  LIG1        0.0660
     36 H           7.9131    2.6525   -0.8728 H       1  LIG1        0.0660
@<TRIPOS>BOND
     1    30    28    1
     2    12    10    1
     3    18    24    1
     4    36    33    1
     5    16    15    1
     6    15    24    1
     7    14     7    1
     8     7     4   ar
     9     7     6   ar
    10    21     4    1
    11    21    19    2
    12    24    17    1
    13     4     2   ar
    14     6     8    1
    15     6     3   ar
    16    28    19    1
    17    28    31    1
    18    28    29    1
    19     1     2   ar
    20     1     3   ar
    21     1    10    1
    22     2     5    1
    23     3     9    1
    24    19    20    1
    25    10    13    1
    26    10    11    1
    27    25    32    1
    28    25    22    2
    29    32    33    1
    30    33    34    1
    31    33    35    1
    32    20    22    1
    33    20    23    1
    34    22    27    1
