@<TRIPOS>MOLECULE
mol_data/noopt/geoms/mol2/4il4il-.out
 36 32 0 0 0
SMALL
GASTEIGER

@<TRIPOS>ATOM
      1 C           0.0509    0.0309    0.0002 C.ar    1  LIG1       -0.0496
      2 C           1.4592    0.0309    0.0002 C.ar    1  LIG1       -0.0476
      3 C          -0.6045    1.2792    0.0002 C.ar    1  LIG1       -0.0554
      4 C           2.1849    1.2200   -0.0004 C.ar    1  LIG1        0.0245
      5 H           1.9850   -0.9213    0.0004 H       1  LIG1        0.0627
      6 C           0.1195    2.4666   -0.0004 C.ar    1  LIG1       -0.0193
      7 C           1.5181    2.4458   -0.0008 C.ar    1  LIG1        0.1246
      8 H          -0.4090    3.4165   -0.0003 H       1  LIG1        0.0654
      9 H          -1.9035    1.3287    0.0016 H       1  LIG1        0.0621
     10 C          -0.5710   -1.1111    0.0005 C.3     1  LIG1       -0.0397
     11 H           0.0257   -1.8420    0.5050 H       1  LIG1        0.0278
     12 H          -0.7416   -1.4245   -1.0083 H       1  LIG1        0.0278
     13 H          -1.5088   -1.0063    0.5049 H       1  LIG1        0.0278
     14 O           2.1896    3.5590   -0.0012 O.3     1  LIG1       -0.5062
     15 C           3.5904    3.2714   -0.0014 C.3     2  LIG2        0.0000
     16 H           4.1427    4.1879   -0.0019 H       2  LIG2        0.0309
     17 H           3.8386    2.7059    0.8724 H       1  LIG1        0.0271
     18 H           3.8381    2.7052   -0.8749 H       1  LIG1        0.0271
     19 C           4.2212    2.3851    0.0002 C.3     1  LIG1       -0.0456
     20 C           5.6264    2.2916    0.0016 C.3     1  LIG1       -0.0128
     21 C           3.4843    1.1831   -0.0005 C.2     1  LIG1       -0.0030
     22 C           6.2715    1.0569    0.0017 C.2     1  LIG1       -0.0386
     23 H           6.2143    3.2067    0.0024 H       1  LIG1        0.0350
     24 C           4.1278   -0.0498   -0.0004 C.2     1  LIG1       -0.0118
     25 C           5.5247   -0.1219    0.0006 C.2     1  LIG1        0.1171
     26 H           3.5374   -0.9625   -0.0009 H       1  LIG1        0.0660
     27 H           7.5706    1.0074    0.0029 H       1  LIG1        0.0611
     28 C           3.6765    3.5659   -0.0001 C.3     3  LIG3       -0.0309
     29 H           2.7338    3.5239    0.5043 H       1  LIG1        0.2922
     30 H           3.5272    3.8895   -1.0090 H       4  UNK4        0.0000
     31 H           4.3204    4.2558    0.5042 H       5  UNK5        0.0000
     32 O           6.1208   -1.2773    0.0008 O.2     1  LIG1       -0.4954
     33 C           5.1417   -2.3195    0.0008 C.3     1  LIG1        0.0788
     34 H           5.6327   -3.2702    0.0009 H       1  LIG1        0.0660
     35 H           4.5298   -2.2340    0.8745 H       1  LIG1        0.0660
     36 H           4.5298   -2.2341   -0.8728 H       1  LIG1        0.0660
@<TRIPOS>BOND
     1    12    10    1
     2    18    19    1
     3    36    33    1
     4    16    28    1
     5    14     7    1
     6    14    29    1
     7    26    24    1
     8     7     4   ar
     9     7     6   ar
    10    21    24    2
    11    21     4    1
    12    24    25    1
    13     4     2   ar
    14     6     8    1
    15     6     3   ar
    16    19    20    1
    17    19    17    1
    18     2     1   ar
    19     2     5    1
    20     1     3   ar
    21     1    10    1
    22     3     9    1
    23    10    13    1
    24    10    11    1
    25    25    32    1
    26    25    22    2
    27    32    33    1
    28    33    34    1
    29    33    35    1
    30    20    22    1
    31    20    23    1
    32    22    27    1
