@<TRIPOS>MOLECULE
mol_data/noopt/geoms/mol2/4il4il-4il.out
 53 49 0 0 0
SMALL
GASTEIGER

@<TRIPOS>ATOM
      1 C           0.0509    0.0309    0.0002 C.ar    1  LIG1       -0.0496
      2 C           1.4592    0.0309    0.0002 C.ar    1  LIG1       -0.0476
      3 C          -0.6045    1.2792    0.0002 C.ar    1  LIG1       -0.0554
      4 C           2.1849    1.2200   -0.0004 C.ar    1  LIG1        0.0242
      5 H           1.9850   -0.9213    0.0004 H       1  LIG1        0.0627
      6 C           0.1195    2.4666   -0.0004 C.ar    1  LIG1       -0.0193
      7 C           1.5181    2.4458   -0.0008 C.ar    1  LIG1        0.1246
      8 H          -0.4090    3.4165   -0.0003 H       1  LIG1        0.0654
      9 H          -1.9035    1.3287    0.0016 H       1  LIG1        0.0621
     10 C          -0.5710   -1.1111    0.0005 C.3     1  LIG1       -0.0397
     11 H           0.0257   -1.8420    0.5050 H       1  LIG1        0.0278
     12 H          -0.7416   -1.4245   -1.0083 H       1  LIG1        0.0278
     13 H          -1.5088   -1.0063    0.5049 H       1  LIG1        0.0278
     14 O           2.1896    3.5590   -0.0012 O.3     1  LIG1       -0.5062
     15 C           3.5904    3.2714   -0.0014 C.3     2  LIG2        0.0000
     16 H           4.1427    4.1879   -0.0019 H       2  LIG2        0.0309
     17 H           3.8386    2.7059    0.8724 H       1  LIG1        0.0310
     18 H           3.8381    2.7052   -0.8749 H       1  LIG1        0.0310
     19 C           4.2212    2.3851    0.0002 C.3     1  LIG1       -0.0306
     20 C           5.6264    2.2916    0.0016 C.2     1  LIG1       -0.0768
     21 C           3.4843    1.1831   -0.0005 C.2     1  LIG1       -0.0076
     22 C           6.2715    1.0569    0.0017 C.2     1  LIG1       -0.0052
     23 H           6.2143    3.2067    0.0024 H       1  LIG1        0.0576
     24 C           4.1278   -0.0498   -0.0004 C.2     1  LIG1       -0.0366
     25 C           5.5247   -0.1219    0.0006 C.3     1  LIG1        0.1464
     26 H           3.5374   -0.9625   -0.0009 H       1  LIG1        0.0611
     27 C           3.6765    3.5659   -0.0001 C.3     3  LIG3       -0.0309
     28 H           2.7338    3.5239    0.5043 H       1  LIG1        0.2922
     29 H           3.5272    3.8895   -1.0090 H       4  UNK4        0.0000
     30 H           4.3204    4.2558    0.5042 H       5  UNK5        0.0000
     31 O           6.1208   -1.2773    0.0008 O.3     1  LIG1       -0.3763
     32 C           5.1417   -2.3195    0.0008 C.3     6  LIG6       -0.0681
     33 H           5.6327   -3.2702    0.0009 H       3  LIG3        0.0227
     34 H           4.5298   -2.2340    0.8745 H       3  LIG3        0.0227
     35 H           4.5298   -2.2341   -0.8728 H       3  LIG3        0.0227
     36 C           8.2259   -0.2409    0.0043 C.ar    1  LIG1       -0.0393
     37 C           9.6342   -0.2409    0.0071 C.ar    1  LIG1       -0.0545
     38 C           7.5705    1.0074    0.0029 C.ar    1  LIG1       -0.0124
     39 C          10.3599    0.9482    0.0079 C.ar    1  LIG1       -0.0197
     40 H          10.1600   -1.1931    0.0084 H       1  LIG1        0.0622
     41 C           8.2945    2.1948    0.0036 C.ar    1  LIG1       -0.0122
     42 C           9.6931    2.1740    0.0060 C.ar    1  LIG1        0.1207
     43 H           7.7660    3.1447    0.0026 H       1  LIG1        0.0660
     44 H          11.6594    0.9113    0.0104 H       1  LIG1        0.0654
     45 C           7.6040   -1.3829    0.0034 C.3     1  LIG1       -0.0231
     46 H           8.2005   -2.1142    0.5076 H       1  LIG1        0.0316
     47 H           7.4338   -1.6956   -1.0056 H       1  LIG1        0.0316
     48 H           6.6660   -1.2785    0.5076 H       1  LIG1        0.2112
     49 O          10.3646    3.2872    0.0069 O.3     1  LIG1       -0.4951
     50 C          11.7654    2.9996    0.0071 C.3     1  LIG1        0.0788
     51 H          12.3177    3.9160    0.0077 H       1  LIG1        0.0660
     52 H          12.0131    2.4334    0.8807 H       1  LIG1        0.0660
     53 H          12.0136    2.4341   -0.8666 H       1  LIG1        0.0660
@<TRIPOS>BOND
     1    12    10    1
     2    47    45    1
     3    18    19    1
     4    35    32    1
     5    53    50    1
     6    16    27    1
     7    14     7    1
     8    14    28    1
     9    26    24    1
    10     7     6   ar
    11     7     4   ar
    12    21    24    2
    13    21     4    1
    14    24    25    1
    15     6     8    1
    16     6     3   ar
    17     4     2   ar
    18    19    20    1
    19    19    17    1
    20     2     1   ar
    21     2     5    1
    22     3     1   ar
    23     3     9    1
    24     1    10    1
    25    10    13    1
    26    10    11    1
    27    25    31    1
    28    25    22    1
    29    31    48    1
    30    32    33    1
    31    32    34    1
    32    20    22    2
    33    20    23    1
    34    22    38    1
    35    43    41    1
    36    38    41   ar
    37    38    36   ar
    38    45    36    1
    39    45    46    1
    40    41    42   ar
    41    36    37   ar
    42    42    49    1
    43    42    39   ar
    44    49    50    1
    45    37    39   ar
    46    37    40    1
    47    50    51    1
    48    50    52    1
    49    39    44    1
