@<TRIPOS>MOLECULE
mol_data/noopt/geoms/mol2/4il4il4il.out
 53 49 0 0 0
SMALL
GASTEIGER

@<TRIPOS>ATOM
      1 C           0.0509    0.0309    0.0002 C.ar    1  LIG1       -0.0496
      2 C           1.4592    0.0309    0.0002 C.ar    1  LIG1       -0.0474
      3 C          -0.6045    1.2792    0.0002 C.ar    1  LIG1       -0.0552
      4 C           2.1849    1.2200   -0.0004 C.ar    1  LIG1        0.0296
      5 H           1.9850   -0.9213    0.0004 H       1  LIG1        0.0627
      6 C           0.1195    2.4666   -0.0004 C.ar    1  LIG1       -0.0141
      7 C           1.5181    2.4458   -0.0008 C.ar    1  LIG1        0.1867
      8 H          -0.4090    3.4165   -0.0003 H       1  LIG1        0.0656
      9 H          -1.9035    1.3287    0.0016 H       1  LIG1        0.0621
     10 C          -0.5710   -1.1111    0.0005 C.3     1  LIG1       -0.0397
     11 H           0.0257   -1.8420    0.5050 H       1  LIG1        0.0278
     12 H          -0.7416   -1.4245   -1.0083 H       1  LIG1        0.0278
     13 H          -1.5088   -1.0063    0.5049 H       1  LIG1        0.0278
     14 O           2.1896    3.5590   -0.0012 O.3     1  LIG1       -0.2873
     15 C           3.5904    3.2714   -0.0014 C.3     1  LIG1       -0.0348
     16 H           4.1427    4.1879   -0.0019 H       1  LIG1        0.0306
     17 H           3.8386    2.7059    0.8724 H       1  LIG1        0.0268
     18 H           3.8381    2.7052   -0.8749 H       1  LIG1        0.0268
     19 C           4.1518   -0.0588    0.0002 C.2     1  LIG1       -0.0562
     20 C           5.5600   -0.0451    0.0016 C.3     1  LIG1        0.0160
     21 C           3.4843    1.1831   -0.0005 C.2     1  LIG1       -0.0069
     22 C           6.2742    1.1510    0.0017 C.2     1  LIG1       -0.0125
     23 H           6.0950   -0.9922    0.0024 H       1  LIG1        0.0401
     24 C           4.1968    2.3775   -0.0004 C.3     1  LIG1       -0.0494
     25 C           5.5955    2.3702    0.0006 C.3     1  LIG1        0.2044
     26 H           3.6591    3.3222   -0.0009 H       2  UNK2        0.0000
     27 C           3.5410   -1.2067   -0.0001 C.3     1  LIG1       -0.0423
     28 H           4.1447   -1.9321    0.5043 H       1  LIG1        0.0275
     29 H           3.3736   -1.5215   -1.0090 H       1  LIG1        0.0275
     30 H           2.6021   -1.1113    0.5042 H       1  LIG1        0.0275
     31 O           6.2562    3.4899    0.0008 O.3     1  LIG1       -0.2155
     32 C           7.6597    3.2159    0.0008 C.3     2  UNK2       -0.0348
     33 H           8.2031    4.1377    0.0008 H       2  UNK2        0.0306
     34 H           7.9131    2.6525    0.8745 H       2  UNK2        0.0268
     35 H           7.9131    2.6525   -0.8728 H       2  UNK2        0.0268
     36 C           8.2534   -0.1087    0.0043 C.2     1  LIG1       -0.0425
     37 C           9.6614   -0.0814    0.0071 C.2     1  LIG1       -0.0547
     38 C           7.5739    1.1267    0.0029 C.2     1  LIG1       -0.0118
     39 C          10.3639    1.1216    0.0079 C.2     1  LIG1       -0.0160
     40 H          10.2056   -1.0232    0.0084 H       1  LIG1        0.0622
     41 C           8.2747    2.3279    0.0036 C.3     2  UNK2       -0.0494
     42 C           9.6734    2.3342    0.0060 C.2     1  LIG1        0.1615
     43 H           7.7279    3.2674    0.0026 H       3  UNK3        0.0000
     44 H          11.6639    1.1099    0.0104 H       1  LIG1        0.0655
     45 C           7.6537   -1.2625    0.0034 C.3     1  LIG1       -0.0391
     46 H           8.2643   -1.9821    0.5076 H       1  LIG1        0.0278
     47 H           7.4896   -1.5784   -1.0056 H       1  LIG1        0.0278
     48 H           6.7139   -1.1763    0.5076 H       1  LIG1        0.0278
     49 O          10.3232    3.4602    0.0069 O.2     1  LIG1       -0.4915
     50 C          11.7293    3.1999    0.0071 C.3     1  LIG1        0.0790
     51 H          12.2637    4.1269    0.0077 H       1  LIG1        0.0660
     52 H          11.9880    2.6386    0.8807 H       1  LIG1        0.0660
     53 H          11.9884    2.6393   -0.8666 H       1  LIG1        0.0660
@<TRIPOS>BOND
     1    29    27    1
     2    12    10    1
     3    47    45    1
     4    18    24    1
     5    35    41    1
     6    53    50    1
     7    16    15    1
     8    15    24    1
     9    14     7    1
    10     7     6   ar
    11     7     4   ar
    12    21     4    1
    13    21    19    2
    14    24    17    1
    15     6     8    1
    16     6     3   ar
    17     4     2   ar
    18    27    19    1
    19    27    30    1
    20    27    28    1
    21     2     1   ar
    22     2     5    1
    23     3     1   ar
    24     3     9    1
    25     1    10    1
    26    19    20    1
    27    10    13    1
    28    10    11    1
    29    25    31    1
    30    25    22    1
    31    32    33    1
    32    32    41    1
    33    20    22    1
    34    20    23    1
    35    22    38    2
    36    38    36    1
    37    45    36    1
    38    45    48    1
    39    45    46    1
    40    41    34    1
    41    36    37    2
    42    42    49    1
    43    42    39    2
    44    49    50    1
    45    37    39    1
    46    37    40    1
    47    50    51    1
    48    50    52    1
    49    39    44    1
