@<TRIPOS>MOLECULE
mol_data/noopt/geoms/mol2/4il6dl(340)12ee(30)4li(280).out
 61 63 0 0 0
SMALL
GASTEIGER

@<TRIPOS>ATOM
      1 C           0.0509    0.0309    0.0002 C.ar    1  LIG1       -0.0496
      2 C           1.4592    0.0309    0.0002 C.ar    1  LIG1       -0.0474
      3 C          -0.6045    1.2792    0.0002 C.ar    1  LIG1       -0.0552
      4 C           2.1849    1.2200   -0.0004 C.ar    1  LIG1        0.0312
      5 H           1.9850   -0.9213    0.0004 H       1  LIG1        0.0627
      6 C           0.1195    2.4666   -0.0004 C.ar    1  LIG1       -0.0141
      7 C           1.5181    2.4458   -0.0008 C.ar    1  LIG1        0.1867
      8 H          -0.4090    3.4165   -0.0003 H       1  LIG1        0.0656
      9 H          -1.9035    1.3287    0.0016 H       1  LIG1        0.0621
     10 C          -0.5710   -1.1111    0.0005 C.3     1  LIG1       -0.0397
     11 H           0.0257   -1.8420    0.5050 H       1  LIG1        0.0278
     12 H          -0.7416   -1.4245   -1.0083 H       1  LIG1        0.0278
     13 H          -1.5088   -1.0063    0.5049 H       1  LIG1        0.0278
     14 O           2.1896    3.5590   -0.0012 O.3     1  LIG1       -0.2873
     15 C           3.5904    3.2714   -0.0014 C.3     1  LIG1       -0.0107
     16 H           4.1427    4.1879   -0.0019 H       1  LIG1        0.0326
     17 H           3.8386    2.7059    0.8724 H       1  LIG1        0.0801
     18 H           3.8381    2.7052   -0.8749 H       1  LIG1        0.0326
     19 C           4.2276    2.3033    0.4145 C.ar    1  LIG1        0.0986
     20 C           3.4844    1.1831   -0.0005 C.ar    1  LIG1        0.0168
     21 C           4.1735    0.0397   -0.4089 C.ar    1  LIG1       -0.0078
     22 C           5.5693    0.0536   -0.3894 C.ar    1  LIG1        0.1496
     23 C           6.2233    1.2222    0.0420 C.ar    1  LIG1        0.1494
     24 N           5.5742    2.3339    0.4395 N.ar    1  LIG1       -0.2377
     25 H           3.6269   -0.8544   -0.7407 H       1  LIG1        0.0661
     26 N           3.1051    4.3501    1.1469 N.2     1  LIG1       -0.1623
     27 C           3.6312    3.3908    0.8036 C.2     1  LIG1        0.0277
     28 O           6.2569   -0.9856   -0.7601 O.3     1  LIG1       -0.4928
     29 C           5.3852   -2.1110   -0.8963 C.3     1  LIG1        0.0789
     30 H           5.9515   -2.9660   -1.2016 H       1  LIG1        0.0660
     31 H           4.9134   -2.3124    0.0428 H       1  LIG1        0.0660
     32 H           4.6383   -1.8967   -1.6319 H       1  LIG1        0.0660
     33 C           7.5213    1.2837    0.0779 C.ar    1  LIG1        0.1739
     34 C           8.5321    0.4673    0.5415 C.ar    1  LIG1        0.0880
     35 C           9.7780    1.1500    0.2615 C.ar    1  LIG1        0.0865
     36 C           9.4459    2.3388   -0.3549 C.ar    1  LIG1        0.1558
     37 O           8.0601    2.4441   -0.4795 O.2     1  LIG1       -0.4505
     38 C           8.4170   -0.6913    1.1197 C.1     1  LIG1       -0.0646
     39 C           8.3106   -1.7619    1.6540 C.1     1  LIG1       -0.1138
     40 H           8.2159   -2.7155    2.1299 H       1  LIG1        0.1232
     41 C          10.9660    0.7058    0.5467 C.1     1  LIG1       -0.0646
     42 C          12.0638    0.2953    0.8102 C.1     1  LIG1       -0.1138
     43 H          13.0416   -0.0703    1.0448 H       1  LIG1        0.1232
     44 C          10.4017    3.4129   -2.2088 C.ar    1  LIG1        0.1308
     45 C          11.1217    4.5298   -2.6751 C.ar    1  LIG1       -0.0190
     46 C          10.1072    3.3515   -0.8313 C.ar    1  LIG1        0.0604
     47 C          11.5308    5.5423   -1.8102 C.ar    1  LIG1       -0.0553
     48 H          11.3597    4.5971   -3.7343 H       1  LIG1        0.0654
     49 C          10.5154    4.3620    0.0326 C.ar    1  LIG1       -0.0446
     50 C          11.2294    5.4637   -0.4499 C.ar    1  LIG1       -0.0495
     51 H          10.2761    4.2916    1.0906 H       1  LIG1        0.0628
     52 H          12.1939    6.5594   -2.2748 H       1  LIG1        0.0621
     53 O          10.0470    2.5004   -3.0641 O.3     1  LIG1       -0.4944
     54 C           8.6603    2.6539   -3.3782 C.3     1  LIG1        0.0788
     55 H           8.3688    1.9028   -4.0823 H       1  LIG1        0.0660
     56 H           8.0790    2.5510   -2.4858 H       1  LIG1        0.0660
     57 H           8.4956    3.6227   -3.8014 H       1  LIG1        0.0660
     58 C          11.6086    6.4054    0.3626 C.3     1  LIG1       -0.0397
     59 H          10.7845    6.6977    0.9793 H       1  LIG1        0.0278
     60 H          11.9481    7.2486   -0.2021 H       1  LIG1        0.0278
     61 H          12.4053    6.0450    0.9792 H       1  LIG1        0.0278
@<TRIPOS>BOND
     1    55    54    1
     2    57    54    1
     3    48    45    1
     4    54    53    1
     5    54    56    1
     6    53    44    1
     7    45    44   ar
     8    45    47   ar
     9    52    47    1
    10    44    46   ar
    11    47    50   ar
    12    32    29    1
    13    30    29    1
    14    12    10    1
    15    29    28    1
    16    29    31    1
    17    18    15    1
    18    46    36    1
    19    46    49   ar
    20    28    22    1
    21    25    21    1
    22    37    36   ar
    23    37    33   ar
    24    50    49   ar
    25    50    58    1
    26    21    22   ar
    27    21    20   ar
    28    22    23   ar
    29    36    35   ar
    30    60    58    1
    31    16    15    1
    32    15    27    1
    33    14     7    1
    34     7     4   ar
    35     7     6   ar
    36    20     4    1
    37    20    19   ar
    38     4     2   ar
    39     6     8    1
    40     6     3   ar
    41     2     1   ar
    42     2     5    1
    43     3     1   ar
    44     3     9    1
    45     1    10    1
    46    10    13    1
    47    10    11    1
    48    49    51    1
    49    23    33    1
    50    23    24   ar
    51    33    34   ar
    52    35    34   ar
    53    35    41    1
    54    58    61    1
    55    58    59    1
    56    19    24   ar
    57    34    38    1
    58    41    42    3
    59    27    17    1
    60    27    26    2
    61    42    43    1
    62    38    39    3
    63    39    40    1
