@<TRIPOS>MOLECULE
mol_data/noopt/geoms/mol2/4la13af-4ed13fi.out
 50 53 0 0 0
SMALL
GASTEIGER

@<TRIPOS>ATOM
      1 C           0.0509    0.0309    0.0002 C.ar    1  LIG1        0.1207
      2 C           1.4592    0.0309    0.0002 C.ar    1  LIG1       -0.0108
      3 C          -0.6045    1.2792    0.0002 C.ar    1  LIG1       -0.0199
      4 C           2.1849    1.2200   -0.0004 C.ar    1  LIG1        0.0019
      5 H           1.9850   -0.9213    0.0004 H       1  LIG1        0.0661
      6 C           0.1195    2.4666   -0.0004 C.ar    1  LIG1       -0.0577
      7 C           1.5181    2.4458   -0.0008 C.ar    1  LIG1       -0.0524
      8 H          -0.4090    3.4165   -0.0003 H       1  LIG1        0.0619
      9 H          -1.9035    1.3287    0.0016 H       1  LIG1        0.0654
     10 O          -0.5709   -1.1108    0.0005 O.3     1  LIG1       -0.4951
     11 C          -1.9830   -0.8853    0.0005 C.3     1  LIG1        0.0788
     12 H          -2.4943   -1.8252    0.0006 H       1  LIG1        0.0660
     13 H          -2.2556   -0.3309    0.8742 H       1  LIG1        0.0660
     14 H          -2.2557   -0.3310   -0.8731 H       1  LIG1        0.0660
     15 H           2.1896    3.5590   -0.0012 H       1  LIG1        0.0624
     16 C           3.4844    1.1831   -0.0005 C.ar    1  LIG1        0.0506
     17 C           4.3366    0.1241    0.0157 C.ar    1  LIG1        0.0058
     18 C           5.6695    0.6477    0.0079 C.ar    1  LIG1        0.1426
     19 C           5.5731    2.0035   -0.0145 C.ar    1  LIG1        0.0901
     20 N           4.2371    2.3356   -0.0192 N.ar    1  LIG1       -0.3512
     21 H           3.8736    3.2606   -0.0344 H       1  LIG1        0.1660
     22 H           3.9999   -1.1313    0.0361 H       1  LIG1        0.0675
     23 O           6.7709   -0.0429    0.0195 O.3     1  LIG1       -0.5046
     24 H           7.5230    0.5536    0.0224 H       1  LIG1        0.2922
     25 C           7.8579    2.5358   -0.0362 C.ar    1  LIG1        0.0346
     26 C           8.8237    3.5606   -0.0504 C.ar    1  LIG1       -0.0352
     27 C           6.4999    2.9149   -0.0291 C.ar    1  LIG1        0.0185
     28 C           8.4559    4.9043   -0.0579 C.ar    1  LIG1        0.0204
     29 H           9.8772    3.2903   -0.0559 H       1  LIG1        0.0637
     30 C           6.1323    4.2561   -0.0365 C.ar    1  LIG1       -0.0333
     31 C           7.1065    5.2597   -0.0511 C.ar    1  LIG1        0.0617
     32 H           5.0785    4.5229   -0.0307 H       1  LIG1        0.0637
     33 C           8.2624    1.3003   -0.0300 C.1     1  LIG1       -0.0690
     34 C           8.6362    0.1588   -0.0243 C.1     1  LIG1       -0.1139
     35 H           8.9691   -0.8581   -0.0193 H       1  LIG1        0.1232
     36 N           6.4485    7.6161   -0.0639 N.1     1  LIG1       -0.1908
     37 C           6.7569    6.5117   -0.0579 C.1     1  LIG1        0.0998
     38 C           9.3739    5.8247   -0.0712 C.ar    1  LIG1        0.0900
     39 C          10.7292    5.7187   -0.0640 C.ar    1  LIG1        0.1449
     40 C          11.2621    7.0477   -0.0851 C.ar    1  LIG1        0.0089
     41 C          10.2091    7.9073   -0.1061 C.ar    1  LIG1        0.0087
     42 N           9.0512    7.1627   -0.0972 N.ar    1  LIG1       -0.3574
     43 H           8.1286    7.5325   -0.1085 H       1  LIG1        0.1655
     44 H          10.1813    9.2067   -0.1298 H       1  LIG1        0.0811
     45 O          11.4121    4.6128   -0.0405 O.3     1  LIG1       -0.5044
     46 H          12.3504    4.8157   -0.0347 H       1  LIG1        0.2922
     47 C          12.5204    7.3758   -0.0849 C.3     1  LIG1       -0.0348
     48 H          12.6450    8.3111    0.4196 H       1  LIG1        0.0279
     49 H          12.8657    7.4659   -1.0936 H       1  LIG1        0.0279
     50 H          13.0858    6.6203    0.4196 H       1  LIG1        0.0279
@<TRIPOS>BOND
     1    49    47    1
     2    14    11    1
     3    44    41    1
     4    43    42    1
     5    41    42   ar
     6    41    40   ar
     7    42    38   ar
     8    40    47    1
     9    40    39   ar
    10    47    50    1
    11    47    48    1
    12    38    39   ar
    13    38    28    1
    14    39    45    1
    15    36    37    3
    16    28    31   ar
    17    28    26   ar
    18    37    31    1
    19    29    26    1
    20    31    30   ar
    21    26    25   ar
    22    45    46    1
    23    30    32    1
    24    30    27   ar
    25    25    33    1
    26    25    27   ar
    27    21    20    1
    28    33    34    3
    29    27    19    1
    30    34    35    1
    31    20    19   ar
    32    20    16   ar
    33    19    18   ar
    34    15     7    1
    35     7     6   ar
    36     7     4   ar
    37    16     4    1
    38    16    17   ar
    39     6     8    1
    40     6     3   ar
    41     4     2   ar
    42     1     3   ar
    43     1     2   ar
    44     1    10    1
    45     3     9    1
    46     2     5    1
    47    10    11    1
    48    11    12    1
    49    11    13    1
    50    18    17   ar
    51    18    23    1
    52    17    22    1
    53    23    24    1
