@<TRIPOS>MOLECULE
mol_data/noopt/geoms/mol2/4la4la-4la4la-.out
 58 58 0 0 0
SMALL
GASTEIGER

@<TRIPOS>ATOM
      1 C           0.0509    0.0309    0.0002 C.ar    1  LIG1        0.1207
      2 C           1.4592    0.0309    0.0002 C.ar    1  LIG1       -0.0124
      3 C          -0.6045    1.2792    0.0002 C.ar    1  LIG1       -0.0199
      4 C           2.1849    1.2200   -0.0004 C.ar    1  LIG1       -0.0152
      5 H           1.9850   -0.9213    0.0004 H       1  LIG1        0.0660
      6 C           0.1195    2.4666   -0.0004 C.ar    1  LIG1       -0.0577
      7 C           1.5181    2.4458   -0.0008 C.ar    1  LIG1       -0.0540
      8 H          -0.4090    3.4165   -0.0003 H       1  LIG1        0.0619
      9 H          -1.9035    1.3287    0.0016 H       1  LIG1        0.0654
     10 O          -0.5709   -1.1108    0.0005 O.3     1  LIG1       -0.4951
     11 C          -1.9830   -0.8853    0.0005 C.3     1  LIG1        0.0788
     12 H          -2.4943   -1.8252    0.0006 H       1  LIG1        0.0660
     13 H          -2.2556   -0.3309    0.8742 H       1  LIG1        0.0660
     14 H          -2.2557   -0.3310   -0.8731 H       1  LIG1        0.0660
     15 H           2.1896    3.5590   -0.0012 H       1  LIG1        0.0624
     16 C           4.2212    2.3851    0.0002 C.3     1  LIG1        0.1500
     17 C           5.6264    2.2916    0.0016 C.2     1  LIG1       -0.0363
     18 C           3.4843    1.1831   -0.0005 C.2     1  LIG1       -0.0013
     19 C           6.2715    1.0569    0.0017 C.2     1  LIG1       -0.0074
     20 H           6.2143    3.2067    0.0024 H       1  LIG1        0.0611
     21 C           4.1278   -0.0498   -0.0004 C.2     1  LIG1       -0.0545
     22 C           5.5247   -0.1219    0.0006 C.3     1  LIG1       -0.0127
     23 H           3.5374   -0.9625   -0.0009 H       1  LIG1        0.0622
     24 O           3.6766    3.5656   -0.0001 O.3     1  LIG1       -0.3643
     25 C           4.7008    4.5636   -0.0003 C.3     1  LIG1        0.0382
     26 H           4.2522    5.5351   -0.0007 H       1  LIG1        0.0524
     27 H           5.3081    4.4516    0.8736 H       1  LIG1        0.0524
     28 H           5.3084    4.4510   -0.8737 H       1  LIG1        0.0524
     29 H           6.1208   -1.2772    0.0008 H       2  UNK2        0.0000
     30 C           8.2259   -0.2409    0.0043 C.ar    1  LIG1        0.1872
     31 C           9.6342   -0.2409    0.0071 C.ar    1  LIG1       -0.0065
     32 C           7.5705    1.0074    0.0029 C.ar    1  LIG1        0.0292
     33 C          10.3599    0.9482    0.0079 C.ar    1  LIG1       -0.0107
     34 H          10.1600   -1.1931    0.0084 H       1  LIG1        0.0662
     35 C           8.2945    2.1948    0.0036 C.ar    1  LIG1       -0.0498
     36 C           9.6931    2.1740    0.0060 C.ar    1  LIG1       -0.0531
     37 H           7.7660    3.1447    0.0026 H       1  LIG1        0.0625
     38 O           7.6041   -1.3826    0.0034 O.3     1  LIG1       -0.2872
     39 C           6.1920   -1.1571    0.0031 C.3     1  LIG1       -0.0580
     40 H           5.6807   -2.0970    0.0022 H       1  LIG1        0.0236
     41 H           5.9190   -0.6034    0.8770 H       1  LIG1        0.0236
     42 H           5.9197   -0.6021   -0.8703 H       1  LIG1        0.0236
     43 H          10.3646    3.2871    0.0069 H       1  LIG1        0.0624
     44 C          12.3962    2.1133    0.0125 C.ar    1  LIG1        0.1278
     45 C          13.8014    2.0197    0.0167 C.ar    1  LIG1       -0.0193
     46 C          11.6593    0.9113    0.0104 C.ar    1  LIG1        0.0239
     47 C          14.4465    0.7851    0.0181 C.ar    1  LIG1       -0.0583
     48 H          14.3892    2.9349    0.0186 H       1  LIG1        0.0654
     49 C          12.3028   -0.3216    0.0118 C.ar    1  LIG1       -0.0505
     50 C          13.6997   -0.3937    0.0156 C.ar    1  LIG1       -0.0610
     51 H          11.7124   -1.2343    0.0102 H       1  LIG1        0.0625
     52 H          15.7455    0.7356    0.0219 H       1  LIG1        0.0619
     53 O          11.8516    3.2938    0.0110 O.3     1  LIG1       -0.4945
     54 C          12.8758    4.2918    0.0104 C.3     1  LIG1        0.0788
     55 H          12.4272    5.2632    0.0091 H       1  LIG1        0.0660
     56 H          13.4828    4.1805    0.8846 H       1  LIG1        0.0660
     57 H          13.4837    4.1785   -0.8627 H       1  LIG1        0.0660
     58 H          14.2958   -1.5490    0.0171 H       1  LIG1        0.0618
@<TRIPOS>BOND
     1    28    25    1
     2    14    11    1
     3    42    39    1
     4    57    54    1
     5    15     7    1
     6    23    21    1
     7     7     4   ar
     8     7     6   ar
     9    26    25    1
    10    18    21    2
    11    18     4    1
    12    18    16    1
    13     4     2   ar
    14     6     8    1
    15     6     3   ar
    16    25    24    1
    17    25    27    1
    18    24    16    1
    19    16    17    1
    20     1     3   ar
    21     1     2   ar
    22     1    10    1
    23     3     9    1
    24     2     5    1
    25    10    11    1
    26    11    12    1
    27    11    13    1
    28    22    39    1
    29    17    19    2
    30    17    20    1
    31    19    32    1
    32    40    39    1
    33    37    35    1
    34    32    35   ar
    35    32    30   ar
    36    39    41    1
    37    38    30    1
    38    35    36   ar
    39    30    31   ar
    40    36    43    1
    41    36    33   ar
    42    31    33   ar
    43    31    34    1
    44    33    46    1
    45    55    54    1
    46    51    49    1
    47    46    49   ar
    48    46    44   ar
    49    54    53    1
    50    54    56    1
    51    53    44    1
    52    49    50   ar
    53    44    45   ar
    54    50    58    1
    55    50    47   ar
    56    45    47   ar
    57    45    48    1
    58    47    52    1
