@<TRIPOS>MOLECULE
mol_data/noopt/geoms/mol2/4la4la-.out
 30 31 0 0 0
SMALL
GASTEIGER

@<TRIPOS>ATOM
      1 C           0.0509    0.0309    0.0002 C.ar    1  LIG1        0.1207
      2 C           1.4592    0.0309    0.0002 C.ar    1  LIG1       -0.0121
      3 C          -0.6045    1.2792    0.0002 C.ar    1  LIG1       -0.0199
      4 C           2.1849    1.2200   -0.0004 C.ar    1  LIG1       -0.0109
      5 H           1.9850   -0.9213    0.0004 H       1  LIG1        0.0660
      6 C           0.1195    2.4666   -0.0004 C.ar    1  LIG1       -0.0577
      7 C           1.5181    2.4458   -0.0008 C.ar    1  LIG1       -0.0537
      8 H          -0.4090    3.4165   -0.0003 H       1  LIG1        0.0619
      9 H          -1.9035    1.3287    0.0016 H       1  LIG1        0.0654
     10 O          -0.5709   -1.1108    0.0005 O.3     1  LIG1       -0.4951
     11 C          -1.9830   -0.8853    0.0005 C.3     1  LIG1        0.0788
     12 H          -2.4943   -1.8252    0.0006 H       1  LIG1        0.0660
     13 H          -2.2556   -0.3309    0.8742 H       1  LIG1        0.0660
     14 H          -2.2557   -0.3310   -0.8731 H       1  LIG1        0.0660
     15 H           2.1896    3.5590   -0.0012 H       1  LIG1        0.0624
     16 C           4.2212    2.3851    0.0002 C.ar    1  LIG1        0.1278
     17 C           5.6264    2.2916    0.0016 C.ar    1  LIG1       -0.0193
     18 C           3.4843    1.1831   -0.0005 C.ar    1  LIG1        0.0239
     19 C           6.2715    1.0569    0.0017 C.ar    1  LIG1       -0.0583
     20 H           6.2143    3.2067    0.0024 H       1  LIG1        0.0654
     21 C           4.1278   -0.0498   -0.0004 C.ar    1  LIG1       -0.0505
     22 C           5.5247   -0.1219    0.0006 C.ar    1  LIG1       -0.0610
     23 H           3.5374   -0.9625   -0.0009 H       1  LIG1        0.0625
     24 H           7.5706    1.0074    0.0029 H       1  LIG1        0.0619
     25 O           3.6766    3.5656   -0.0001 O.3     1  LIG1       -0.4945
     26 C           4.7008    4.5636   -0.0003 C.3     1  LIG1        0.0788
     27 H           4.2522    5.5351   -0.0007 H       1  LIG1        0.0660
     28 H           5.3081    4.4516    0.8736 H       1  LIG1        0.0660
     29 H           5.3084    4.4510   -0.8737 H       1  LIG1        0.0660
     30 H           6.1208   -1.2772    0.0008 H       1  LIG1        0.0618
@<TRIPOS>BOND
     1    29    26    1
     2    14    11    1
     3    15     7    1
     4    23    21    1
     5     7     4   ar
     6     7     6   ar
     7    27    26    1
     8    18    21   ar
     9    18     4    1
    10    18    16   ar
    11    21    22   ar
    12     4     2   ar
    13     6     8    1
    14     6     3   ar
    15    26    25    1
    16    26    28    1
    17    25    16    1
    18    16    17   ar
    19     1     3   ar
    20     1     2   ar
    21     1    10    1
    22     3     9    1
    23     2     5    1
    24    10    11    1
    25    11    12    1
    26    11    13    1
    27    22    30    1
    28    22    19   ar
    29    17    19   ar
    30    17    20    1
    31    19    24    1
