@<TRIPOS>MOLECULE
mol_data/noopt/geoms/mol2/4la4la-4la-4la-.out
 58 61 0 0 0
SMALL
GASTEIGER

@<TRIPOS>ATOM
      1 C           0.0509    0.0309    0.0002 C.ar    1  LIG1        0.1207
      2 C           1.4592    0.0309    0.0002 C.ar    1  LIG1       -0.0121
      3 C          -0.6045    1.2792    0.0002 C.ar    1  LIG1       -0.0199
      4 C           2.1849    1.2200   -0.0004 C.ar    1  LIG1       -0.0109
      5 H           1.9850   -0.9213    0.0004 H       1  LIG1        0.0660
      6 C           0.1195    2.4666   -0.0004 C.ar    1  LIG1       -0.0577
      7 C           1.5181    2.4458   -0.0008 C.ar    1  LIG1       -0.0537
      8 H          -0.4090    3.4165   -0.0003 H       1  LIG1        0.0619
      9 H          -1.9035    1.3287    0.0016 H       1  LIG1        0.0654
     10 O          -0.5709   -1.1108    0.0005 O.3     1  LIG1       -0.4951
     11 C          -1.9830   -0.8853    0.0005 C.3     1  LIG1        0.0788
     12 H          -2.4943   -1.8252    0.0006 H       1  LIG1        0.0660
     13 H          -2.2556   -0.3309    0.8742 H       1  LIG1        0.0660
     14 H          -2.2557   -0.3310   -0.8731 H       1  LIG1        0.0660
     15 H           2.1896    3.5590   -0.0012 H       1  LIG1        0.0624
     16 C           4.2212    2.3851    0.0002 C.ar    1  LIG1        0.1283
     17 C           5.6264    2.2916    0.0016 C.ar    1  LIG1       -0.0115
     18 C           3.4843    1.1831   -0.0005 C.ar    1  LIG1        0.0239
     19 C           6.2715    1.0569    0.0017 C.ar    1  LIG1       -0.0109
     20 H           6.2143    3.2067    0.0024 H       1  LIG1        0.0660
     21 C           4.1278   -0.0498   -0.0004 C.ar    1  LIG1       -0.0500
     22 C           5.5247   -0.1219    0.0006 C.ar    1  LIG1       -0.0531
     23 H           3.5374   -0.9625   -0.0009 H       1  LIG1        0.0625
     24 O           3.6766    3.5656   -0.0001 O.3     1  LIG1       -0.4945
     25 C           4.7008    4.5636   -0.0003 C.3     1  LIG1        0.0788
     26 H           4.2522    5.5351   -0.0007 H       1  LIG1        0.0660
     27 H           5.3081    4.4516    0.8736 H       1  LIG1        0.0660
     28 H           5.3084    4.4510   -0.8737 H       1  LIG1        0.0660
     29 H           6.1208   -1.2772    0.0008 H       1  LIG1        0.0624
     30 C           8.3190    2.2022    0.0043 C.ar    1  LIG1        0.1283
     31 C           9.7232    2.0950    0.0071 C.ar    1  LIG1       -0.0115
     32 C           7.5705    1.0074    0.0029 C.ar    1  LIG1        0.0239
     33 C          10.3563    0.8541    0.0079 C.ar    1  LIG1       -0.0109
     34 H          10.3199    3.0044    0.0084 H       1  LIG1        0.0660
     35 C           8.2020   -0.2317    0.0037 C.ar    1  LIG1       -0.0500
     36 C           9.5982   -0.3174    0.0061 C.ar    1  LIG1       -0.0531
     37 H           7.6028   -1.1386    0.0026 H       1  LIG1        0.0625
     38 O           7.7859    3.3879    0.0034 O.3     1  LIG1       -0.4945
     39 C           8.8197    4.3760    0.0030 C.3     1  LIG1        0.0788
     40 H           8.3805    5.3517    0.0022 H       1  LIG1        0.0660
     41 H           9.4258    4.2584    0.8770 H       1  LIG1        0.0660
     42 H           9.4263    4.2571   -0.8703 H       1  LIG1        0.0660
     43 H          10.1830   -1.4784    0.0069 H       1  LIG1        0.0624
     44 C          12.4148    1.9795    0.0125 C.ar    1  LIG1        0.1278
     45 C          13.8179    1.8587    0.0167 C.ar    1  LIG1       -0.0193
     46 C          11.6548    0.7920    0.0104 C.ar    1  LIG1        0.0239
     47 C          14.4389    0.6118    0.0181 C.ar    1  LIG1       -0.0583
     48 H          14.4234    2.7623    0.0186 H       1  LIG1        0.0654
     49 C          12.2742   -0.4531    0.0118 C.ar    1  LIG1       -0.0505
     50 C          13.6695   -0.5523    0.0156 C.ar    1  LIG1       -0.0610
     51 H          11.6662   -1.3542    0.0102 H       1  LIG1        0.0625
     52 H          15.7368    0.5371    0.0219 H       1  LIG1        0.0619
     53 O          11.8933    3.1704    0.0110 O.3     1  LIG1       -0.4945
     54 C          12.9366    4.1483    0.0104 C.3     1  LIG1        0.0788
     55 H          12.5069    5.1283    0.0091 H       1  LIG1        0.0660
     56 H          13.5413    4.0253    0.8846 H       1  LIG1        0.0660
     57 H          13.5422    4.0233   -0.8627 H       1  LIG1        0.0660
     58 H          14.2430   -1.7190    0.0171 H       1  LIG1        0.0618
@<TRIPOS>BOND
     1    28    25    1
     2    14    11    1
     3    42    39    1
     4    57    54    1
     5    15     7    1
     6    23    21    1
     7     7     4   ar
     8     7     6   ar
     9    26    25    1
    10    18    21   ar
    11    18     4    1
    12    18    16   ar
    13    21    22   ar
    14     4     2   ar
    15     6     8    1
    16     6     3   ar
    17    25    24    1
    18    25    27    1
    19    24    16    1
    20    16    17   ar
    21     1     3   ar
    22     1     2   ar
    23     1    10    1
    24     3     9    1
    25     2     5    1
    26    10    11    1
    27    11    12    1
    28    11    13    1
    29    22    29    1
    30    22    19   ar
    31    17    19   ar
    32    17    20    1
    33    19    32    1
    34    40    39    1
    35    37    35    1
    36    32    35   ar
    37    32    30   ar
    38    39    38    1
    39    39    41    1
    40    38    30    1
    41    35    36   ar
    42    30    31   ar
    43    36    43    1
    44    36    33   ar
    45    31    33   ar
    46    31    34    1
    47    33    46    1
    48    55    54    1
    49    51    49    1
    50    46    49   ar
    51    46    44   ar
    52    54    53    1
    53    54    56    1
    54    53    44    1
    55    49    50   ar
    56    44    45   ar
    57    50    58    1
    58    50    47   ar
    59    45    47   ar
    60    45    48    1
    61    47    52    1
