@<TRIPOS>MOLECULE
mol_data/noopt/geoms/mol2/4la4la4la-4la-.out
 58 59 0 0 0
SMALL
GASTEIGER

@<TRIPOS>ATOM
      1 C           0.0509    0.0309    0.0002 C.2     1  LIG1        0.1579
      2 C           1.4592    0.0309    0.0002 C.3     2  LIG2       -0.0681
      3 C          -0.6045    1.2792    0.0002 C.2     1  LIG1       -0.0309
      4 C           2.1849    1.2200   -0.0004 C.2     1  LIG1       -0.0102
      5 H           1.9850   -0.9213    0.0004 H       1  LIG1        0.0227
      6 C           0.1195    2.4666   -0.0004 C.3     1  LIG1        0.0097
      7 C           1.5181    2.4458   -0.0008 C.2     1  LIG1       -0.0678
      8 H          -0.4090    3.4165   -0.0003 H       1  LIG1        0.0396
      9 H          -1.9035    1.3287    0.0016 H       1  LIG1        0.0616
     10 O          -0.5709   -1.1108    0.0005 O.2     1  LIG1       -0.4918
     11 C          -1.9830   -0.8853    0.0005 C.3     1  LIG1        0.0789
     12 H          -2.4943   -1.8252    0.0006 H       1  LIG1        0.0660
     13 H          -2.2556   -0.3309    0.8742 H       1  LIG1        0.0660
     14 H          -2.2557   -0.3310   -0.8731 H       1  LIG1        0.0660
     15 H           2.1896    3.5590   -0.0012 H       1  LIG1        0.0584
     16 C           4.1518   -0.0588    0.0002 C.ar    1  LIG1        0.1295
     17 C           5.5600   -0.0451    0.0016 C.ar    1  LIG1       -0.0115
     18 C           3.4843    1.1831   -0.0005 C.ar    1  LIG1        0.0241
     19 C           6.2742    1.1510    0.0017 C.ar    1  LIG1       -0.0109
     20 H           6.0950   -0.9922    0.0024 H       1  LIG1        0.0660
     21 C           4.1968    2.3775   -0.0004 C.ar    1  LIG1       -0.0499
     22 C           5.5955    2.3702    0.0006 C.ar    1  LIG1       -0.0531
     23 H           3.6591    3.3222   -0.0009 H       1  LIG1        0.0625
     24 O           3.5411   -1.2065   -0.0001 O.3     1  LIG1       -0.4805
     25 C           2.1269   -0.9946   -0.0003 C.3     1  LIG1        0.1805
     26 H           1.6247   -1.9395   -0.0006 H       1  LIG1        0.0811
     27 H           1.8487   -0.4432    0.8736 H       1  LIG1        0.0227
     28 H           1.8490   -0.4427   -0.8737 H       1  LIG1        0.0227
     29 H           6.2561    3.4899    0.0008 H       1  LIG1        0.0624
     30 C           8.2991    2.3358    0.0043 C.ar    1  LIG1        0.1283
     31 C           9.7051    2.2559    0.0071 C.ar    1  LIG1       -0.0115
     32 C           7.5739    1.1267    0.0029 C.ar    1  LIG1        0.0239
     33 C          10.3621    1.0275    0.0079 C.ar    1  LIG1       -0.0109
     34 H          10.2841    3.1767    0.0084 H       1  LIG1        0.0660
     35 C           8.2293   -0.0999    0.0037 C.ar    1  LIG1       -0.0500
     36 C           9.6269   -0.1585    0.0061 C.ar    1  LIG1       -0.0531
     37 H           7.6478   -1.0183    0.0026 H       1  LIG1        0.0625
     38 O           7.7431    3.5109    0.0034 O.3     1  LIG1       -0.4945
     39 C           8.7575    4.5188    0.0030 C.3     1  LIG1        0.0788
     40 H           8.2995    5.4859    0.0022 H       1  LIG1        0.0660
     41 H           9.3657    4.4131    0.8770 H       1  LIG1        0.0660
     42 H           9.3663    4.4118   -0.8703 H       1  LIG1        0.0660
     43 H          10.2341   -1.3080    0.0069 H       1  LIG1        0.0624
     44 C          12.3984    2.1926    0.0125 C.ar    1  LIG1        0.1278
     45 C          13.8036    2.0991    0.0167 C.ar    1  LIG1       -0.0193
     46 C          11.6616    0.9906    0.0104 C.ar    1  LIG1        0.0239
     47 C          14.4487    0.8644    0.0181 C.ar    1  LIG1       -0.0583
     48 H          14.3915    3.0142    0.0186 H       1  LIG1        0.0654
     49 C          12.3051   -0.2423    0.0118 C.ar    1  LIG1       -0.0505
     50 C          13.7020   -0.3144    0.0156 C.ar    1  LIG1       -0.0610
     51 H          11.7147   -1.1550    0.0102 H       1  LIG1        0.0625
     52 H          15.7478    0.8149    0.0219 H       1  LIG1        0.0619
     53 O          11.8539    3.3731    0.0110 O.3     1  LIG1       -0.4945
     54 C          12.8780    4.3711    0.0104 C.3     1  LIG1        0.0788
     55 H          12.4294    5.3425    0.0091 H       1  LIG1        0.0660
     56 H          13.4850    4.2598    0.8846 H       1  LIG1        0.0660
     57 H          13.4860    4.2578   -0.8627 H       1  LIG1        0.0660
     58 H          14.2980   -1.4697    0.0171 H       1  LIG1        0.0618
@<TRIPOS>BOND
     1    28     2    1
     2    14    11    1
     3    42    39    1
     4    57    54    1
     5    15     7    1
     6    23    21    1
     7     7     4    2
     8     7     6    1
     9    26    25    1
    10    18    21   ar
    11    18     4    1
    12    18    16   ar
    13    21    22   ar
    14     6     8    1
    15     6     3    1
    16    25    24    1
    17    24    16    1
    18     1     3    2
    19     1    10    1
    20     3     9    1
    21     2     5    1
    22     2    27    1
    23    16    17   ar
    24    10    11    1
    25    11    12    1
    26    11    13    1
    27    22    29    1
    28    22    19   ar
    29    17    19   ar
    30    17    20    1
    31    19    32    1
    32    40    39    1
    33    37    35    1
    34    32    35   ar
    35    32    30   ar
    36    39    38    1
    37    39    41    1
    38    38    30    1
    39    35    36   ar
    40    30    31   ar
    41    36    43    1
    42    36    33   ar
    43    31    33   ar
    44    31    34    1
    45    33    46    1
    46    55    54    1
    47    51    49    1
    48    46    49   ar
    49    46    44   ar
    50    54    53    1
    51    54    56    1
    52    53    44    1
    53    49    50   ar
    54    44    45   ar
    55    50    58    1
    56    50    47   ar
    57    45    47   ar
    58    45    48    1
    59    47    52    1
