@<TRIPOS>MOLECULE
mol_data/noopt/geoms/mol2/4la4la4la.out
 44 42 0 0 0
SMALL
GASTEIGER

@<TRIPOS>ATOM
      1 C           0.0509    0.0309    0.0002 C.2     1  LIG1        0.1615
      2 C           1.4592    0.0309    0.0002 C.3     2  LIG2       -0.0681
      3 C          -0.6045    1.2792    0.0002 C.2     1  LIG1       -0.0163
      4 C           2.1849    1.2200   -0.0004 C.2     1  LIG1       -0.0151
      5 H           1.9850   -0.9213    0.0004 H       1  LIG1        0.0227
      6 C           0.1195    2.4666   -0.0004 C.2     1  LIG1       -0.0576
      7 C           1.5181    2.4458   -0.0008 C.2     1  LIG1       -0.0538
      8 H          -0.4090    3.4165   -0.0003 H       1  LIG1        0.0619
      9 H          -1.9035    1.3287    0.0016 H       1  LIG1        0.0655
     10 O          -0.5709   -1.1108    0.0005 O.2     1  LIG1       -0.4915
     11 C          -1.9830   -0.8853    0.0005 C.3     1  LIG1        0.0790
     12 H          -2.4943   -1.8252    0.0006 H       1  LIG1        0.0660
     13 H          -2.2556   -0.3309    0.8742 H       1  LIG1        0.0660
     14 H          -2.2557   -0.3310   -0.8731 H       1  LIG1        0.0660
     15 H           2.1896    3.5590   -0.0012 H       1  LIG1        0.0624
     16 C           4.1518   -0.0588    0.0002 C.3     1  LIG1        0.1639
     17 C           5.5600   -0.0451    0.0016 C.3     3  LIG3       -0.0681
     18 C           3.4843    1.1831   -0.0005 C.2     1  LIG1       -0.0164
     19 C           6.2742    1.1510    0.0017 C.2     1  LIG1       -0.0102
     20 H           6.0950   -0.9922    0.0024 H       2  LIG2        0.0227
     21 C           4.1968    2.3775   -0.0004 C.3     1  LIG1        0.0129
     22 C           5.5955    2.3702    0.0006 C.2     1  LIG1       -0.0675
     23 H           3.6591    3.3222   -0.0009 H       1  LIG1        0.0398
     24 O           3.5411   -1.2065   -0.0001 O.3     1  LIG1       -0.3538
     25 C           2.1269   -0.9946   -0.0003 C.3     1  LIG1        0.1173
     26 H           1.6247   -1.9395   -0.0006 H       1  LIG1        0.0650
     27 H           1.8487   -0.4432    0.8736 H       1  LIG1        0.0227
     28 H           1.8490   -0.4427   -0.8737 H       1  LIG1        0.0227
     29 H           6.2561    3.4899    0.0008 H       1  LIG1        0.0584
     30 C           8.2534   -0.1087    0.0043 C.ar    1  LIG1        0.1290
     31 C           9.6614   -0.0814    0.0071 C.ar    1  LIG1       -0.0193
     32 C           7.5739    1.1267    0.0029 C.ar    1  LIG1        0.0241
     33 C          10.3639    1.1216    0.0079 C.ar    1  LIG1       -0.0583
     34 H          10.2056   -1.0232    0.0084 H       1  LIG1        0.0654
     35 C           8.2747    2.3279    0.0036 C.ar    1  LIG1       -0.0505
     36 C           9.6734    2.3342    0.0060 C.ar    1  LIG1       -0.0610
     37 H           7.7279    3.2674    0.0026 H       1  LIG1        0.0625
     38 H          11.6639    1.1099    0.0104 H       1  LIG1        0.0619
     39 O           7.6539   -1.2622    0.0034 O.3     1  LIG1       -0.4806
     40 C           6.2377   -1.0641    0.0031 C.3     1  LIG1        0.1805
     41 H           5.7446   -2.0138    0.0022 H       1  LIG1        0.0811
     42 H           5.9540   -0.5158    0.8770 H       2  LIG2        0.0227
     43 H           5.9546   -0.5145   -0.8703 H       2  LIG2        0.0227
     44 H          10.3232    3.4602    0.0069 H       1  LIG1        0.0618
@<TRIPOS>BOND
     1    28     2    1
     2    14    11    1
     3    43    17    1
     4    15     7    1
     5    23    21    1
     6     7     4    1
     7     7     6    2
     8    26    25    1
     9    18    21    1
    10    18     4    2
    11    18    16    1
    12    21    22    1
    13     6     8    1
    14     6     3    1
    15    25    24    1
    16    24    16    1
    17     1     3    2
    18     1    10    1
    19     2     5    1
    20     2    27    1
    21     3     9    1
    22    10    11    1
    23    11    12    1
    24    11    13    1
    25    22    29    1
    26    22    19    2
    27    17    20    1
    28    17    42    1
    29    19    32    1
    30    41    40    1
    31    37    35    1
    32    32    35   ar
    33    32    30   ar
    34    40    39    1
    35    39    30    1
    36    35    36   ar
    37    30    31   ar
    38    36    44    1
    39    36    33   ar
    40    31    33   ar
    41    31    34    1
    42    33    38    1
