@<TRIPOS>MOLECULE
mol_data/noopt/geoms/mol2/4la4la.out
 30 29 0 0 0
SMALL
GASTEIGER

@<TRIPOS>ATOM
      1 C           0.0509    0.0309    0.0002 C.2     1  LIG1        0.1579
      2 C           1.4592    0.0309    0.0002 C.3     2  LIG2       -0.0681
      3 C          -0.6045    1.2792    0.0002 C.2     1  LIG1       -0.0309
      4 C           2.1849    1.2200   -0.0004 C.2     1  LIG1       -0.0102
      5 H           1.9850   -0.9213    0.0004 H       1  LIG1        0.0227
      6 C           0.1195    2.4666   -0.0004 C.3     1  LIG1        0.0097
      7 C           1.5181    2.4458   -0.0008 C.2     1  LIG1       -0.0678
      8 H          -0.4090    3.4165   -0.0003 H       1  LIG1        0.0396
      9 H          -1.9035    1.3287    0.0016 H       1  LIG1        0.0616
     10 O          -0.5709   -1.1108    0.0005 O.2     1  LIG1       -0.4918
     11 C          -1.9830   -0.8853    0.0005 C.3     1  LIG1        0.0789
     12 H          -2.4943   -1.8252    0.0006 H       1  LIG1        0.0660
     13 H          -2.2556   -0.3309    0.8742 H       1  LIG1        0.0660
     14 H          -2.2557   -0.3310   -0.8731 H       1  LIG1        0.0660
     15 H           2.1896    3.5590   -0.0012 H       1  LIG1        0.0584
     16 C           4.1518   -0.0588    0.0002 C.ar    1  LIG1        0.1290
     17 C           5.5600   -0.0451    0.0016 C.ar    1  LIG1       -0.0193
     18 C           3.4843    1.1831   -0.0005 C.ar    1  LIG1        0.0241
     19 C           6.2742    1.1510    0.0017 C.ar    1  LIG1       -0.0583
     20 H           6.0950   -0.9922    0.0024 H       1  LIG1        0.0654
     21 C           4.1968    2.3775   -0.0004 C.ar    1  LIG1       -0.0505
     22 C           5.5955    2.3702    0.0006 C.ar    1  LIG1       -0.0610
     23 H           3.6591    3.3222   -0.0009 H       1  LIG1        0.0625
     24 H           7.5740    1.1267    0.0029 H       1  LIG1        0.0619
     25 O           3.5411   -1.2065   -0.0001 O.3     1  LIG1       -0.4806
     26 C           2.1269   -0.9946   -0.0003 C.3     1  LIG1        0.1805
     27 H           1.6247   -1.9395   -0.0006 H       1  LIG1        0.0811
     28 H           1.8487   -0.4432    0.8736 H       1  LIG1        0.0227
     29 H           1.8490   -0.4427   -0.8737 H       1  LIG1        0.0227
     30 H           6.2561    3.4899    0.0008 H       1  LIG1        0.0618
@<TRIPOS>BOND
     1    29     2    1
     2    14    11    1
     3    15     7    1
     4    23    21    1
     5     7     6    1
     6     7     4    2
     7    27    26    1
     8    18    21   ar
     9    18     4    1
    10    18    16   ar
    11    21    22   ar
    12     6     8    1
    13     6     3    1
    14    26    25    1
    15    25    16    1
    16     3     1    2
    17     3     9    1
    18     2     5    1
    19     2    28    1
    20     1    10    1
    21    16    17   ar
    22    10    11    1
    23    11    12    1
    24    11    13    1
    25    22    30    1
    26    22    19   ar
    27    17    19   ar
    28    17    20    1
    29    19    24    1
