@<TRIPOS>MOLECULE
mol_data/noopt/geoms/mol2/4la4la-4la-4la.out
 58 58 0 0 0
SMALL
GASTEIGER

@<TRIPOS>ATOM
      1 C           0.0509    0.0309    0.0002 C.ar    1  LIG1        0.1207
      2 C           1.4592    0.0309    0.0002 C.ar    1  LIG1       -0.0121
      3 C          -0.6045    1.2792    0.0002 C.ar    1  LIG1       -0.0199
      4 C           2.1849    1.2200   -0.0004 C.ar    1  LIG1       -0.0109
      5 H           1.9850   -0.9213    0.0004 H       1  LIG1        0.0660
      6 C           0.1195    2.4666   -0.0004 C.ar    1  LIG1       -0.0577
      7 C           1.5181    2.4458   -0.0008 C.ar    1  LIG1       -0.0537
      8 H          -0.4090    3.4165   -0.0003 H       1  LIG1        0.0619
      9 H          -1.9035    1.3287    0.0016 H       1  LIG1        0.0654
     10 O          -0.5709   -1.1108    0.0005 O.3     1  LIG1       -0.4951
     11 C          -1.9830   -0.8853    0.0005 C.3     1  LIG1        0.0788
     12 H          -2.4943   -1.8252    0.0006 H       1  LIG1        0.0660
     13 H          -2.2556   -0.3309    0.8742 H       1  LIG1        0.0660
     14 H          -2.2557   -0.3310   -0.8731 H       1  LIG1        0.0660
     15 H           2.1896    3.5590   -0.0012 H       1  LIG1        0.0624
     16 C           4.2212    2.3851    0.0002 C.ar    1  LIG1        0.1283
     17 C           5.6264    2.2916    0.0016 C.ar    1  LIG1       -0.0118
     18 C           3.4843    1.1831   -0.0005 C.ar    1  LIG1        0.0239
     19 C           6.2715    1.0569    0.0017 C.ar    1  LIG1       -0.0152
     20 H           6.2143    3.2067    0.0024 H       1  LIG1        0.0660
     21 C           4.1278   -0.0498   -0.0004 C.ar    1  LIG1       -0.0500
     22 C           5.5247   -0.1219    0.0006 C.ar    1  LIG1       -0.0534
     23 H           3.5374   -0.9625   -0.0009 H       1  LIG1        0.0625
     24 O           3.6766    3.5656   -0.0001 O.3     1  LIG1       -0.4945
     25 C           4.7008    4.5636   -0.0003 C.3     1  LIG1        0.0788
     26 H           4.2522    5.5351   -0.0007 H       1  LIG1        0.0660
     27 H           5.3081    4.4516    0.8736 H       1  LIG1        0.0660
     28 H           5.3084    4.4510   -0.8737 H       1  LIG1        0.0660
     29 H           6.1208   -1.2772    0.0008 H       1  LIG1        0.0624
     30 C           8.3190    2.2022    0.0043 C.3     1  LIG1        0.1500
     31 C           9.7232    2.0950    0.0071 C.2     1  LIG1       -0.0363
     32 C           7.5705    1.0074    0.0029 C.2     1  LIG1       -0.0013
     33 C          10.3563    0.8541    0.0079 C.2     1  LIG1       -0.0074
     34 H          10.3199    3.0044    0.0084 H       1  LIG1        0.0611
     35 C           8.2020   -0.2317    0.0037 C.2     1  LIG1       -0.0545
     36 C           9.5982   -0.3174    0.0061 C.3     1  LIG1       -0.0348
     37 H           7.6028   -1.1386    0.0026 H       1  LIG1        0.0622
     38 O           7.7859    3.3879    0.0034 O.3     1  LIG1       -0.3643
     39 C           8.8197    4.3760    0.0030 C.3     1  LIG1        0.0382
     40 H           8.3805    5.3517    0.0022 H       1  LIG1        0.0524
     41 H           9.4258    4.2584    0.8770 H       1  LIG1        0.0524
     42 H           9.4263    4.2571   -0.8703 H       1  LIG1        0.0524
     43 H          10.1830   -1.4784    0.0069 H       2  UNK2        0.0000
     44 C          12.2980   -0.4626    0.0125 C.ar    1  LIG1        0.1866
     45 C          13.7062   -0.4762    0.0167 C.ar    1  LIG1       -0.0143
     46 C          11.6548    0.7920    0.0104 C.ar    1  LIG1        0.0292
     47 C          14.4434    0.7058    0.0181 C.ar    1  LIG1       -0.0581
     48 H          14.2228   -1.4335    0.0186 H       1  LIG1        0.0656
     49 C          12.3902    1.9724    0.0118 C.ar    1  LIG1       -0.0504
     50 C          13.7886    1.9380    0.0156 C.ar    1  LIG1       -0.0610
     51 H          11.8710    2.9273    0.0102 H       1  LIG1        0.0625
     52 H          15.7425    0.6563    0.0219 H       1  LIG1        0.0619
     53 O          11.6652   -1.5982    0.0110 O.3     1  LIG1       -0.2873
     54 C          10.2554   -1.3590    0.0104 C.3     1  LIG1       -0.0494
     55 H           9.7349   -2.2939    0.0091 H       1  LIG1        0.0268
     56 H           9.9875   -0.8030    0.8846 H       1  LIG1        0.0268
     57 H           9.9886   -0.8010   -0.8627 H       1  LIG1        0.0306
     58 H          14.4708    3.0446    0.0171 H       1  LIG1        0.0618
@<TRIPOS>BOND
     1    28    25    1
     2    14    11    1
     3    42    39    1
     4    57    36    1
     5    15     7    1
     6    23    21    1
     7     7     4   ar
     8     7     6   ar
     9    26    25    1
    10    18    21   ar
    11    18     4    1
    12    18    16   ar
    13    21    22   ar
    14     4     2   ar
    15     6     8    1
    16     6     3   ar
    17    25    24    1
    18    25    27    1
    19    24    16    1
    20    16    17   ar
    21     1     3   ar
    22     1     2   ar
    23     1    10    1
    24     3     9    1
    25     2     5    1
    26    10    11    1
    27    11    12    1
    28    11    13    1
    29    22    29    1
    30    22    19   ar
    31    17    19   ar
    32    17    20    1
    33    19    32    1
    34    40    39    1
    35    37    35    1
    36    32    35    2
    37    32    30    1
    38    39    38    1
    39    39    41    1
    40    38    30    1
    41    30    31    1
    42    36    54    1
    43    31    33    2
    44    31    34    1
    45    33    46    1
    46    55    54    1
    47    51    49    1
    48    46    49   ar
    49    46    44   ar
    50    54    56    1
    51    53    44    1
    52    49    50   ar
    53    44    45   ar
    54    50    58    1
    55    50    47   ar
    56    45    47   ar
    57    45    48    1
    58    47    52    1
