@<TRIPOS>MOLECULE
mol_data/noopt/geoms/mol2/4la4la4la4la-.out
 58 57 0 0 0
SMALL
GASTEIGER

@<TRIPOS>ATOM
      1 C           0.0509    0.0309    0.0002 C.2     1  LIG1        0.1615
      2 C           1.4592    0.0309    0.0002 C.3     2  LIG2       -0.0681
      3 C          -0.6045    1.2792    0.0002 C.2     1  LIG1       -0.0163
      4 C           2.1849    1.2200   -0.0004 C.2     1  LIG1       -0.0151
      5 H           1.9850   -0.9213    0.0004 H       1  LIG1        0.0227
      6 C           0.1195    2.4666   -0.0004 C.2     1  LIG1       -0.0576
      7 C           1.5181    2.4458   -0.0008 C.2     1  LIG1       -0.0538
      8 H          -0.4090    3.4165   -0.0003 H       1  LIG1        0.0619
      9 H          -1.9035    1.3287    0.0016 H       1  LIG1        0.0655
     10 O          -0.5709   -1.1108    0.0005 O.2     1  LIG1       -0.4915
     11 C          -1.9830   -0.8853    0.0005 C.3     1  LIG1        0.0790
     12 H          -2.4943   -1.8252    0.0006 H       1  LIG1        0.0660
     13 H          -2.2556   -0.3309    0.8742 H       1  LIG1        0.0660
     14 H          -2.2557   -0.3310   -0.8731 H       1  LIG1        0.0660
     15 H           2.1896    3.5590   -0.0012 H       1  LIG1        0.0624
     16 C           4.1518   -0.0588    0.0002 C.3     1  LIG1        0.1639
     17 C           5.5600   -0.0451    0.0016 C.3     3  LIG3       -0.0681
     18 C           3.4843    1.1831   -0.0005 C.2     1  LIG1       -0.0164
     19 C           6.2742    1.1510    0.0017 C.2     1  LIG1       -0.0102
     20 H           6.0950   -0.9922    0.0024 H       2  LIG2        0.0227
     21 C           4.1968    2.3775   -0.0004 C.3     1  LIG1        0.0129
     22 C           5.5955    2.3702    0.0006 C.2     1  LIG1       -0.0675
     23 H           3.6591    3.3222   -0.0009 H       1  LIG1        0.0398
     24 O           3.5411   -1.2065   -0.0001 O.3     1  LIG1       -0.3538
     25 C           2.1269   -0.9946   -0.0003 C.3     1  LIG1        0.1173
     26 H           1.6247   -1.9395   -0.0006 H       1  LIG1        0.0650
     27 H           1.8487   -0.4432    0.8736 H       1  LIG1        0.0227
     28 H           1.8490   -0.4427   -0.8737 H       1  LIG1        0.0227
     29 H           6.2561    3.4899    0.0008 H       1  LIG1        0.0584
     30 C           8.2534   -0.1087    0.0043 C.ar    1  LIG1        0.1295
     31 C           9.6614   -0.0814    0.0071 C.ar    1  LIG1       -0.0115
     32 C           7.5739    1.1267    0.0029 C.ar    1  LIG1        0.0241
     33 C          10.3639    1.1216    0.0079 C.ar    1  LIG1       -0.0109
     34 H          10.2056   -1.0232    0.0084 H       1  LIG1        0.0660
     35 C           8.2747    2.3279    0.0036 C.ar    1  LIG1       -0.0499
     36 C           9.6734    2.3342    0.0060 C.ar    1  LIG1       -0.0531
     37 H           7.7279    3.2674    0.0026 H       1  LIG1        0.0625
     38 O           7.6539   -1.2622    0.0034 O.3     1  LIG1       -0.4805
     39 C           6.2377   -1.0641    0.0031 C.3     1  LIG1        0.1805
     40 H           5.7446   -2.0138    0.0022 H       1  LIG1        0.0811
     41 H           5.9540   -0.5158    0.8770 H       2  LIG2        0.0227
     42 H           5.9546   -0.5145   -0.8703 H       2  LIG2        0.0227
     43 H          10.3232    3.4602    0.0069 H       1  LIG1        0.0624
     44 C          12.3772    2.3260    0.0125 C.ar    1  LIG1        0.1278
     45 C          13.7839    2.2597    0.0167 C.ar    1  LIG1       -0.0193
     46 C          11.6638    1.1099    0.0104 C.ar    1  LIG1        0.0239
     47 C          14.4529    1.0378    0.0181 C.ar    1  LIG1       -0.0583
     48 H          14.3540    3.1861    0.0186 H       1  LIG1        0.0654
     49 C          12.3311   -0.1102    0.0118 C.ar    1  LIG1       -0.0505
     50 C          13.7291   -0.1553    0.0156 C.ar    1  LIG1       -0.0610
     51 H          11.7585   -1.0342    0.0102 H       1  LIG1        0.0625
     52 H          15.7527    1.0135    0.0219 H       1  LIG1        0.0619
     53 O          11.8099    3.4957    0.0110 O.3     1  LIG1       -0.4945
     54 C          12.8144    4.5134    0.0104 C.3     1  LIG1        0.0788
     55 H          12.3471    5.4759    0.0091 H       1  LIG1        0.0660
     56 H          13.4235    4.4139    0.8846 H       1  LIG1        0.0660
     57 H          13.4245    4.4119   -0.8627 H       1  LIG1        0.0660
     58 H          14.3475   -1.2988    0.0171 H       1  LIG1        0.0618
@<TRIPOS>BOND
     1    28     2    1
     2    14    11    1
     3    42    17    1
     4    57    54    1
     5    15     7    1
     6    23    21    1
     7     7     4    1
     8     7     6    2
     9    26    25    1
    10    18    21    1
    11    18     4    2
    12    18    16    1
    13    21    22    1
    14     6     8    1
    15     6     3    1
    16    25    24    1
    17    24    16    1
    18     1     3    2
    19     1    10    1
    20     3     9    1
    21     2     5    1
    22     2    27    1
    23    10    11    1
    24    11    12    1
    25    11    13    1
    26    22    29    1
    27    22    19    2
    28    17    20    1
    29    17    41    1
    30    19    32    1
    31    40    39    1
    32    37    35    1
    33    32    35   ar
    34    32    30   ar
    35    39    38    1
    36    38    30    1
    37    35    36   ar
    38    30    31   ar
    39    36    43    1
    40    36    33   ar
    41    31    33   ar
    42    31    34    1
    43    33    46    1
    44    55    54    1
    45    51    49    1
    46    46    49   ar
    47    46    44   ar
    48    54    53    1
    49    54    56    1
    50    53    44    1
    51    49    50   ar
    52    44    45   ar
    53    50    58    1
    54    50    47   ar
    55    45    47   ar
    56    45    48    1
    57    47    52    1
