@<TRIPOS>MOLECULE
mol_data/noopt/geoms/mol2/4la6ie-6ld-12af-.out
 52 55 0 0 0
SMALL
GASTEIGER

@<TRIPOS>ATOM
      1 C           0.0509    0.0309    0.0002 C.ar    1  LIG1        0.1207
      2 C           1.4592    0.0309    0.0002 C.ar    1  LIG1       -0.0122
      3 C          -0.6045    1.2792    0.0002 C.ar    1  LIG1       -0.0199
      4 C           2.1849    1.2200   -0.0004 C.ar    1  LIG1       -0.0127
      5 H           1.9850   -0.9213    0.0004 H       1  LIG1        0.0660
      6 C           0.1195    2.4666   -0.0004 C.ar    1  LIG1       -0.0577
      7 C           1.5181    2.4458   -0.0008 C.ar    1  LIG1       -0.0537
      8 H          -0.4090    3.4165   -0.0003 H       1  LIG1        0.0619
      9 H          -1.9035    1.3287    0.0016 H       1  LIG1        0.0654
     10 O          -0.5709   -1.1108    0.0005 O.3     1  LIG1       -0.4951
     11 C          -1.9830   -0.8853    0.0005 C.3     1  LIG1        0.0788
     12 H          -2.4943   -1.8252    0.0006 H       1  LIG1        0.0660
     13 H          -2.2556   -0.3309    0.8742 H       1  LIG1        0.0660
     14 H          -2.2557   -0.3310   -0.8731 H       1  LIG1        0.0660
     15 H           2.1896    3.5590   -0.0012 H       1  LIG1        0.0624
     16 C           4.2297    2.3762   -0.0216 C.ar    1  LIG1        0.0467
     17 C           3.4844    1.1831   -0.0005 C.ar    1  LIG1        0.0045
     18 C           4.1715   -0.0320    0.0205 C.ar    1  LIG1       -0.0348
     19 C           5.5674   -0.0147    0.0195 C.ar    1  LIG1        0.0514
     20 C           6.2235    1.2297   -0.0026 C.ar    1  LIG1        0.0917
     21 N           5.5764    2.4113   -0.0228 N.ar    1  LIG1       -0.2499
     22 H           3.6233   -0.9846    0.0362 H       1  LIG1        0.0637
     23 C           3.6350    3.5324   -0.0414 C.3     1  LIG1       -0.0217
     24 H           2.6915    3.4568    0.4575 H       1  LIG1        0.0293
     25 H           3.4789    3.8358   -1.0556 H       1  LIG1        0.0293
     26 H           4.2453    4.2559    0.4574 H       1  LIG1        0.0293
     27 C           6.2531   -1.1189    0.0383 C.1     1  LIG1       -0.0675
     28 C           6.8868   -2.1392    0.0557 C.1     1  LIG1       -0.1138
     29 H           7.4513   -3.0481    0.0712 H       1  LIG1        0.1232
     30 C           8.1685    2.5468   -0.0263 C.ar    1  LIG1        0.2246
     31 C           7.5217    1.2976   -0.0044 C.ar    1  LIG1        0.0643
     32 C           8.3045    0.1418    0.0157 C.ar    1  LIG1       -0.0278
     33 C           9.6944    0.2715    0.0130 C.ar    1  LIG1        0.0816
     34 C          10.2482    1.5647   -0.0099 C.ar    1  LIG1        0.1272
     35 N           9.5080    2.6903   -0.0293 N.ar    1  LIG1       -0.2079
     36 H           7.8348   -0.8518    0.0321 H       1  LIG1        0.0639
     37 O           7.4827    3.6511   -0.0454 O.3     1  LIG1       -0.4792
     38 C           8.3762    4.7677   -0.0525 C.3     1  LIG1        0.0804
     39 H           7.8114    5.6763   -0.0683 H       1  LIG1        0.0660
     40 H           8.9860    4.7421    0.8264 H       1  LIG1        0.0660
     41 H           8.9997    4.7201   -0.9207 H       1  LIG1        0.0660
     42 N          11.1483   -1.6960    0.0467 N.1     1  LIG1       -0.1908
     43 C          10.4670   -0.7739    0.0309 C.1     1  LIG1        0.1014
     44 C          11.5367    1.7369   -0.0133 C.ar    1  LIG1        0.1579
     45 C          12.6396    0.9083   -0.0010 C.ar    1  LIG1        0.0273
     46 C          13.8046    1.7683   -0.0150 C.ar    1  LIG1        0.1551
     47 C          13.3361    3.0659   -0.0349 C.ar    1  LIG1        0.1339
     48 O          11.9408    3.0725   -0.0344 O.2     1  LIG1       -0.4576
     49 H          13.8795    4.2467   -0.0535 H       1  LIG1        0.1068
     50 H          12.6582   -0.3914    0.0192 H       1  LIG1        0.0693
     51 O          15.0416    1.3684   -0.0094 O.3     1  LIG1       -0.5036
     52 H          15.6249    2.1309   -0.0081 H       1  LIG1        0.2923
@<TRIPOS>BOND
     1    25    23    1
     2    41    38    1
     3    14    11    1
     4    39    38    1
     5    49    47    1
     6    38    37    1
     7    38    40    1
     8    37    30    1
     9    23    16    1
    10    23    26    1
    11    23    24    1
    12    47    48   ar
    13    47    46   ar
    14    48    44   ar
    15    35    30   ar
    16    35    34   ar
    17    30    31   ar
    18    21    16   ar
    19    21    20   ar
    20    16    17   ar
    21    46    51    1
    22    46    45   ar
    23    44    34    1
    24    44    45   ar
    25    34    33   ar
    26    51    52    1
    27    31    20    1
    28    31    32   ar
    29    20    19   ar
    30    15     7    1
    31    45    50    1
    32     7     6   ar
    33     7     4   ar
    34    17     4    1
    35    17    18   ar
    36     6     8    1
    37     6     3   ar
    38     4     2   ar
    39     1     2   ar
    40     1     3   ar
    41     1    10    1
    42     2     5    1
    43     3     9    1
    44    10    11    1
    45    11    12    1
    46    11    13    1
    47    33    32   ar
    48    33    43    1
    49    32    36    1
    50    19    18   ar
    51    19    27    1
    52    18    22    1
    53    43    42    3
    54    27    28    3
    55    28    29    1
