@<TRIPOS>MOLECULE
mol_data/noopt/geoms/mol2/4ld12ee12da6al-.out
 49 52 0 0 0
SMALL
GASTEIGER

@<TRIPOS>ATOM
      1 C           0.0509    0.0309    0.0002 C.ar    1  LIG1        0.1208
      2 C           1.4592    0.0309    0.0002 C.ar    1  LIG1       -0.0080
      3 C          -0.6045    1.2792    0.0002 C.ar    1  LIG1       -0.0187
      4 C           2.1849    1.2200   -0.0004 C.ar    1  LIG1        0.0393
      5 H           1.9850   -0.9213    0.0004 H       1  LIG1        0.0661
      6 C           0.1195    2.4666   -0.0004 C.ar    1  LIG1       -0.0402
      7 C           1.5181    2.4458   -0.0008 C.ar    1  LIG1        0.0627
      8 H          -0.4090    3.4165   -0.0003 H       1  LIG1        0.0632
      9 H          -1.9035    1.3287    0.0016 H       1  LIG1        0.0654
     10 O          -0.5709   -1.1108    0.0005 O.3     1  LIG1       -0.4951
     11 C          -1.9830   -0.8853    0.0005 C.3     1  LIG1        0.0788
     12 H          -2.4943   -1.8252    0.0006 H       1  LIG1        0.0660
     13 H          -2.2556   -0.3309    0.8742 H       1  LIG1        0.0660
     14 H          -2.2557   -0.3310   -0.8731 H       1  LIG1        0.0660
     15 N           2.7818    4.5408   -0.0016 N.1     1  LIG1       -0.1908
     16 C           2.1896    3.5590   -0.0012 C.1     1  LIG1        0.0999
     17 C           3.4844    1.1831   -0.0005 C.ar    1  LIG1        0.1537
     18 C           4.4399    0.1881   -0.0006 C.ar    1  LIG1        0.0865
     19 C           5.7279    0.8499   -0.0007 C.ar    1  LIG1        0.0895
     20 C           5.4738    2.2061   -0.0008 C.ar    1  LIG1        0.1884
     21 O           4.0977    2.4367   -0.0007 O.2     1  LIG1       -0.4491
     22 C           4.2495   -1.0979   -0.0005 C.1     1  LIG1       -0.0646
     23 C           4.0736   -2.2861   -0.0004 C.1     1  LIG1       -0.1138
     24 H           3.9169   -3.3446   -0.0003 H       1  LIG1        0.1232
     25 C           6.8846    0.2566   -0.0008 C.1     1  LIG1       -0.0645
     26 C           7.9534   -0.2917   -0.0008 C.1     1  LIG1       -0.1138
     27 H           8.9054   -0.7801   -0.0009 H       1  LIG1        0.1232
     28 C           6.1999    3.2844   -0.0008 C.ar    1  LIG1        0.1891
     29 C           7.5515    3.5599    0.0139 C.ar    1  LIG1        0.1011
     30 C           7.6810    5.0021    0.0032 C.ar    1  LIG1        0.0024
     31 C           6.3993    5.5125   -0.0175 C.ar    1  LIG1        0.1387
     32 O           5.4687    4.4730   -0.0205 O.2     1  LIG1       -0.4503
     33 N           9.4048    1.9632    0.0513 N.1     1  LIG1       -0.1907
     34 C           8.5363    2.7115    0.0338 C.1     1  LIG1        0.1031
     35 H           8.8009    5.6623    0.0117 H       1  LIG1        0.0668
     36 C           4.4792    6.8650   -0.0645 C.ar    1  LIG1        0.0385
     37 C           5.8764    6.7026   -0.0343 C.ar    1  LIG1        0.0388
     38 C           6.6802    7.8440   -0.0226 C.ar    1  LIG1       -0.0063
     39 C           6.0671    9.0979   -0.0416 C.ar    1  LIG1        0.1388
     40 C           4.6617    9.1578   -0.0717 C.ar    1  LIG1        0.0692
     41 N           3.8710    8.0669   -0.0831 N.ar    1  LIG1       -0.2589
     42 H           7.7757    7.7565   -0.0001 H       1  LIG1        0.0662
     43 H           4.0446   10.3018   -0.0901 H       1  LIG1        0.0867
     44 H           3.6892    5.8327   -0.0763 H       1  LIG1        0.0837
     45 O           6.7713   10.1906   -0.0320 O.3     1  LIG1       -0.4936
     46 C           8.1630    9.8615   -0.0285 C.3     1  LIG1        0.0789
     47 H           8.7422   10.7611   -0.0208 H       1  LIG1        0.0660
     48 H           8.3906    9.2832    0.8426 H       1  LIG1        0.0660
     49 H           8.3974    9.2938   -0.9047 H       1  LIG1        0.0660
@<TRIPOS>BOND
     1    49    46    1
     2    14    11    1
     3    43    40    1
     4    41    40   ar
     5    41    36   ar
     6    44    36    1
     7    40    39   ar
     8    36    37   ar
     9    39    45    1
    10    39    38   ar
    11    37    38   ar
    12    37    31    1
    13    45    46    1
    14    46    47    1
    15    46    48    1
    16    38    42    1
    17    32    31   ar
    18    32    28   ar
    19    31    30   ar
    20    15    16    3
    21    16     7    1
    22    27    26    1
    23    26    25    3
    24    28    20    1
    25    28    29   ar
    26     7     4   ar
    27     7     6   ar
    28    25    19    1
    29    20    21   ar
    30    20    19   ar
    31    21    17   ar
    32    19    18   ar
    33    18    17   ar
    34    18    22    1
    35    17     4    1
    36    22    23    3
    37     4     2   ar
    38     6     8    1
    39     6     3   ar
    40    23    24    1
    41     2     1   ar
    42     2     5    1
    43     3     1   ar
    44     3     9    1
    45     1    10    1
    46    10    11    1
    47    11    12    1
    48    11    13    1
    49    30    35    1
    50    30    29   ar
    51    29    34    1
    52    34    33    3
