@<TRIPOS>MOLECULE
mol_data/noopt/geoms/mol2/4ld13if13al-13al-.out
 53 56 0 0 0
SMALL
GASTEIGER

@<TRIPOS>ATOM
      1 C           0.0509    0.0309    0.0002 C.ar    1  LIG1        0.1208
      2 C           1.4592    0.0309    0.0002 C.ar    1  LIG1       -0.0096
      3 C          -0.6045    1.2792    0.0002 C.ar    1  LIG1       -0.0187
      4 C           2.1849    1.2200   -0.0004 C.ar    1  LIG1        0.0195
      5 H           1.9850   -0.9213    0.0004 H       1  LIG1        0.0661
      6 C           0.1195    2.4666   -0.0004 C.ar    1  LIG1       -0.0403
      7 C           1.5181    2.4458   -0.0008 C.ar    1  LIG1        0.0611
      8 H          -0.4090    3.4165   -0.0003 H       1  LIG1        0.0632
      9 H          -1.9035    1.3287    0.0016 H       1  LIG1        0.0654
     10 O          -0.5709   -1.1108    0.0005 O.3     1  LIG1       -0.4951
     11 C          -1.9830   -0.8853    0.0005 C.3     1  LIG1        0.0788
     12 H          -2.4943   -1.8252    0.0006 H       1  LIG1        0.0660
     13 H          -2.2556   -0.3309    0.8742 H       1  LIG1        0.0660
     14 H          -2.2557   -0.3310   -0.8731 H       1  LIG1        0.0660
     15 N           2.7818    4.5408   -0.0016 N.1     1  LIG1       -0.1908
     16 C           2.1896    3.5590   -0.0012 C.1     1  LIG1        0.0998
     17 C           3.4844    1.1831   -0.0005 C.ar    1  LIG1        0.0548
     18 C           4.3366    0.1240   -0.0009 C.ar    1  LIG1        0.0170
     19 C           5.6695    0.6476    0.0003 C.ar    1  LIG1        0.1469
     20 C           5.5731    2.0036   -0.0004 C.ar    1  LIG1        0.1057
     21 N           4.2371    2.3357   -0.0004 N.ar    1  LIG1       -0.3498
     22 H           3.8737    3.2609   -0.0009 H       1  LIG1        0.1661
     23 C           3.9998   -1.1319   -0.0008 C.3     1  LIG1       -0.0342
     24 H           4.7512   -1.7027    0.5036 H       1  LIG1        0.0279
     25 H           3.9074   -1.4765   -1.0096 H       1  LIG1        0.0279
     26 H           3.0635   -1.2500    0.5036 H       1  LIG1        0.0279
     27 O           6.7709   -0.0431    0.0013 O.3     1  LIG1       -0.5043
     28 H           7.5231    0.5534    0.0016 H       1  LIG1        0.2922
     29 C           6.5000    2.9152    0.0001 C.ar    1  LIG1        0.0706
     30 C           7.8542    2.7960    0.0001 C.ar    1  LIG1        0.0076
     31 C           8.4000    4.1199    0.0019 C.ar    1  LIG1        0.1473
     32 C           7.3553    4.9899    0.0012 C.ar    1  LIG1        0.1057
     33 N           6.1903    4.2565    0.0006 N.ar    1  LIG1       -0.3488
     34 H           5.2713    4.6354   -0.0001 H       1  LIG1        0.1661
     35 H           8.5263    1.6833    0.0000 H       1  LIG1        0.0676
     36 O           9.6611    4.4357    0.0034 O.3     1  LIG1       -0.4929
     37 C          10.4515    3.2439    0.0039 C.3     1  LIG1        0.0789
     38 H          11.4893    3.5042    0.0050 H       1  LIG1        0.0660
     39 H          10.2274    2.6677    0.8772 H       1  LIG1        0.0660
     40 H          10.2291    2.6681   -0.8701 H       1  LIG1        0.0660
     41 C           7.3401    6.2898    0.0020 C.ar    1  LIG1        0.0701
     42 C           8.3641    7.1838    0.0189 C.ar    1  LIG1        0.0069
     43 C           7.7876    8.4946    0.0121 C.ar    1  LIG1        0.1379
     44 C           6.4367    8.3440   -0.0104 C.ar    1  LIG1        0.0444
     45 N           6.1584    6.9957   -0.0161 N.ar    1  LIG1       -0.3564
     46 H           5.2487    6.5955   -0.0316 H       1  LIG1        0.1655
     47 H           5.4888    9.2336   -0.0243 H       1  LIG1        0.0844
     48 H           9.6320    6.8976    0.0391 H       1  LIG1        0.0676
     49 O           8.4335    9.6227    0.0245 O.3     1  LIG1       -0.4936
     50 C           9.8404    9.3672    0.0290 C.3     1  LIG1        0.0789
     51 H          10.3716   10.2959    0.0391 H       1  LIG1        0.0660
     52 H          10.0971    8.8000    0.8993 H       1  LIG1        0.0660
     53 H          10.1053    8.8143   -0.8479 H       1  LIG1        0.0660
@<TRIPOS>BOND
     1    25    23    1
     2    14    11    1
     3    40    37    1
     4    53    50    1
     5    46    45    1
     6    47    44    1
     7    45    44   ar
     8    45    41   ar
     9    44    43   ar
    10    15    16    3
    11    16     7    1
    12    18    23    1
    13    18    17   ar
    14    18    19   ar
    15    22    21    1
    16    23    26    1
    17    23    24    1
    18     7     6   ar
    19     7     4   ar
    20    17     4    1
    21    17    21   ar
    22     6     8    1
    23     6     3   ar
    24     4     2   ar
    25    21    20   ar
    26    20    29    1
    27    20    19   ar
    28    34    33    1
    29    35    30    1
    30    30    29   ar
    31    30    31   ar
    32    29    33   ar
    33     1     2   ar
    34     1     3   ar
    35     1    10    1
    36     2     5    1
    37     3     9    1
    38    19    27    1
    39    10    11    1
    40    11    12    1
    41    11    13    1
    42    33    32   ar
    43    32    31   ar
    44    32    41    1
    45    27    28    1
    46    31    36    1
    47    41    42   ar
    48    36    37    1
    49    37    38    1
    50    37    39    1
    51    43    42   ar
    52    43    49    1
    53    42    48    1
    54    49    50    1
    55    50    51    1
    56    50    52    1
