@<TRIPOS>MOLECULE
mol_data/noopt/geoms/mol2/4ld13fa(130)4ie(240)13de(290).out
 52 55 0 0 0
SMALL
GASTEIGER

@<TRIPOS>ATOM
      1 C           0.0509    0.0309    0.0002 C.ar    1  LIG1        0.1208
      2 C           1.4592    0.0309    0.0002 C.ar    1  LIG1       -0.0095
      3 C          -0.6045    1.2792    0.0002 C.ar    1  LIG1       -0.0187
      4 C           2.1849    1.2200   -0.0004 C.ar    1  LIG1        0.0227
      5 H           1.9850   -0.9213    0.0004 H       1  LIG1        0.0661
      6 C           0.1195    2.4666   -0.0004 C.ar    1  LIG1       -0.0403
      7 C           1.5181    2.4458   -0.0008 C.ar    1  LIG1        0.0612
      8 H          -0.4090    3.4165   -0.0003 H       1  LIG1        0.0632
      9 H          -1.9035    1.3287    0.0016 H       1  LIG1        0.0654
     10 O          -0.5709   -1.1108    0.0005 O.3     1  LIG1       -0.4951
     11 C          -1.9830   -0.8853    0.0005 C.3     1  LIG1        0.0788
     12 H          -2.4943   -1.8252    0.0006 H       1  LIG1        0.0660
     13 H          -2.2556   -0.3309    0.8742 H       1  LIG1        0.0660
     14 H          -2.2557   -0.3310   -0.8731 H       1  LIG1        0.0660
     15 N           2.7818    4.5408   -0.0016 N.1     1  LIG1       -0.1908
     16 C           2.1896    3.5590   -0.0012 C.1     1  LIG1        0.0998
     17 C           3.4844    1.1831   -0.0005 C.ar    1  LIG1        0.0903
     18 C           4.3858    1.8545    0.7641 C.ar    1  LIG1        0.1426
     19 C           5.6920    1.4401    0.3484 C.ar    1  LIG1        0.0058
     20 C           5.5313    0.5324   -0.6508 C.ar    1  LIG1        0.0508
     21 N           4.1813    0.3725   -0.8679 N.ar    1  LIG1       -0.3512
     22 H           3.7743   -0.2328   -1.5432 H       1  LIG1        0.1660
     23 O           4.1092    2.7149    1.6986 O.3     1  LIG1       -0.5046
     24 H           3.1795    2.6499    1.9290 H       1  LIG1        0.2922
     25 H           6.8247    1.8530    0.8346 H       1  LIG1        0.0675
     26 C           6.8018    0.3481   -2.6144 C.ar    1  LIG1       -0.0407
     27 C           7.7596   -0.3997   -3.3261 C.ar    1  LIG1       -0.0479
     28 C           6.4135   -0.1241   -1.3439 C.ar    1  LIG1        0.0025
     29 C           8.3085   -1.5661   -2.7980 C.ar    1  LIG1        0.0152
     30 H           8.0732   -0.0533   -4.3084 H       1  LIG1        0.0627
     31 C           6.9611   -1.2884   -0.8162 C.ar    1  LIG1       -0.0363
     32 C           7.9117   -2.0172   -1.5385 C.ar    1  LIG1        0.0344
     33 H           6.6454   -1.6320    0.1656 H       1  LIG1        0.0637
     34 C           6.3259    1.4286   -3.1594 C.3     1  LIG1       -0.0391
     35 H           5.3107    1.5663   -2.8510 H       1  LIG1        0.0278
     36 H           6.3658    1.3379   -4.2249 H       1  LIG1        0.0278
     37 H           6.9098    2.2705   -2.8510 H       1  LIG1        0.0278
     38 C           8.4200   -3.1050   -1.0401 C.1     1  LIG1       -0.0690
     39 C           8.8897   -4.1101   -0.5797 C.1     1  LIG1       -0.1139
     40 H           9.3081   -5.0054   -0.1695 H       1  LIG1        0.1232
     41 C           9.1907   -2.2318   -3.4824 C.ar    1  LIG1        0.0665
     42 C           9.1559   -2.6817   -4.7647 C.ar    1  LIG1        0.0923
     43 C          10.3931   -3.3583   -5.0143 C.ar    1  LIG1        0.0599
     44 C          11.1302   -3.2905   -3.8741 C.ar    1  LIG1        0.0189
     45 N          10.3976   -2.6021   -2.9335 N.ar    1  LIG1       -0.3585
     46 H          10.6935   -2.4034   -2.0056 H       1  LIG1        0.1654
     47 H          12.3152   -3.7535   -3.6070 H       1  LIG1        0.0820
     48 N           7.3140   -2.3885   -6.3481 N.1     1  LIG1       -0.1908
     49 C           8.1772   -2.5259   -5.6061 C.1     1  LIG1        0.1025
     50 C          10.7494   -3.9321   -6.1250 C.1     1  LIG1       -0.0669
     51 C          11.0787   -4.4624   -7.1513 C.1     1  LIG1       -0.1138
     52 H          11.3719   -4.9348   -8.0655 H       1  LIG1        0.1232
@<TRIPOS>BOND
     1    52    51    1
     2    51    50    3
     3    48    49    3
     4    50    43    1
     5    49    42    1
     6    43    42   ar
     7    43    44   ar
     8    42    41   ar
     9    30    27    1
    10    36    34    1
    11    44    47    1
    12    44    45   ar
    13    41    45   ar
    14    41    29    1
    15    27    29   ar
    16    27    26   ar
    17    34    37    1
    18    34    35    1
    19    34    26    1
    20    45    46    1
    21    29    32   ar
    22    26    28   ar
    23    22    21    1
    24    32    38    1
    25    32    31   ar
    26    28    31   ar
    27    28    20    1
    28    38    39    3
    29    14    11    1
    30    21    20   ar
    31    21    17   ar
    32    31    33    1
    33    20    19   ar
    34    39    40    1
    35    15    16    3
    36    16     7    1
    37     7     6   ar
    38     7     4   ar
    39    17     4    1
    40    17    18   ar
    41     6     8    1
    42     6     3   ar
    43     4     2   ar
    44     3     1   ar
    45     3     9    1
    46     2     1   ar
    47     2     5    1
    48     1    10    1
    49    10    11    1
    50    11    12    1
    51    11    13    1
    52    19    18   ar
    53    19    25    1
    54    18    23    1
    55    23    24    1
