@<TRIPOS>MOLECULE
mol_data/noopt/geoms/mol2/4ld13fd-12fl13eh.out
 51 54 0 0 0
SMALL
GASTEIGER

@<TRIPOS>ATOM
      1 C           0.0509    0.0309    0.0002 C.ar    1  LIG1        0.1208
      2 C           1.4592    0.0309    0.0002 C.ar    1  LIG1       -0.0095
      3 C          -0.6045    1.2792    0.0002 C.ar    1  LIG1       -0.0187
      4 C           2.1849    1.2200   -0.0004 C.ar    1  LIG1        0.0227
      5 H           1.9850   -0.9213    0.0004 H       1  LIG1        0.0661
      6 C           0.1195    2.4666   -0.0004 C.ar    1  LIG1       -0.0403
      7 C           1.5181    2.4458   -0.0008 C.ar    1  LIG1        0.0612
      8 H          -0.4090    3.4165   -0.0003 H       1  LIG1        0.0632
      9 H          -1.9035    1.3287    0.0016 H       1  LIG1        0.0654
     10 O          -0.5709   -1.1108    0.0005 O.3     1  LIG1       -0.4951
     11 C          -1.9830   -0.8853    0.0005 C.3     1  LIG1        0.0788
     12 H          -2.4943   -1.8252    0.0006 H       1  LIG1        0.0660
     13 H          -2.2556   -0.3309    0.8742 H       1  LIG1        0.0660
     14 H          -2.2557   -0.3310   -0.8731 H       1  LIG1        0.0660
     15 N           2.7818    4.5408   -0.0016 N.1     1  LIG1       -0.1908
     16 C           2.1896    3.5590   -0.0012 C.1     1  LIG1        0.0998
     17 C           3.4844    1.1831   -0.0005 C.ar    1  LIG1        0.0917
     18 C           4.3366    0.1241    0.0157 C.ar    1  LIG1        0.1602
     19 C           5.6695    0.6477    0.0079 C.ar    1  LIG1        0.1220
     20 C           5.5731    2.0035   -0.0145 C.ar    1  LIG1        0.1076
     21 N           4.2371    2.3356   -0.0192 N.ar    1  LIG1       -0.3477
     22 H           3.8736    3.2606   -0.0344 H       1  LIG1        0.1661
     23 O           3.9999   -1.1314    0.0361 O.3     1  LIG1       -0.5034
     24 H           4.7909   -1.6752    0.0411 H       1  LIG1        0.2923
     25 N           7.7422   -0.6520    0.0298 N.1     1  LIG1       -0.1907
     26 C           6.7708   -0.0429    0.0195 C.1     1  LIG1        0.1051
     27 C           6.5000    2.9149   -0.0291 C.ar    1  LIG1        0.1982
     28 C           7.8795    2.9147   -0.0253 C.ar    1  LIG1        0.2076
     29 C           8.2945    4.3018   -0.0502 C.ar    1  LIG1        0.2099
     30 C           7.1406    5.0580   -0.0676 C.ar    1  LIG1        0.1983
     31 O           6.0209    4.2255   -0.0552 O.2     1  LIG1       -0.4442
     32 O           8.6750    1.8867   -0.0037 O.3     1  LIG1       -0.5008
     33 H           9.5867    2.1872    0.0016 H       1  LIG1        0.2924
     34 O           9.5238    4.7249   -0.0548 O.3     1  LIG1       -0.4884
     35 C          10.4138    3.6056   -0.0565 C.3     1  LIG1        0.0791
     36 H          11.4254    3.9542   -0.0605 H       1  LIG1        0.0660
     37 H          10.2440    3.0135    0.8185 H       1  LIG1        0.0660
     38 H          10.2379    3.0114   -0.9288 H       1  LIG1        0.0660
     39 C           6.8659    6.3284   -0.0922 C.ar    1  LIG1        0.1033
     40 C           7.6907    7.4089   -0.1093 C.ar    1  LIG1        0.0736
     41 C           6.8638    8.5778   -0.1329 C.ar    1  LIG1        0.0584
     42 C           5.5701    8.1601   -0.1310 C.ar    1  LIG1        0.0243
     43 N           5.5668    6.7837   -0.1057 N.ar    1  LIG1       -0.3555
     44 H           4.7553    6.2098   -0.0988 H       1  LIG1        0.1655
     45 H           4.4635    8.8422   -0.1475 H       1  LIG1        0.0826
     46 C           8.9904    7.3820   -0.1035 C.1     1  LIG1       -0.0656
     47 C          10.1913    7.3571   -0.0981 C.1     1  LIG1       -0.1138
     48 H          11.2611    7.3350   -0.0934 H       1  LIG1        0.1232
     49 N           7.2713    9.8121   -0.1529 N.pl3   1  LIG1       -0.3559
     50 H           8.1488    9.8657   -0.6294 H       1  LIG1        0.1424
     51 H           6.5982   10.3776   -0.6295 H       1  LIG1        0.1424
@<TRIPOS>BOND
     1    38    35    1
     2    14    11    1
     3    51    49    1
     4    50    49    1
     5    49    41    1
     6    45    42    1
     7    41    42   ar
     8    41    40   ar
     9    42    43   ar
    10    40    46    1
    11    40    39   ar
    12    43    44    1
    13    43    39   ar
    14    46    47    3
    15    47    48    1
    16    39    30    1
    17    30    31   ar
    18    30    29   ar
    19    36    35    1
    20    35    34    1
    21    35    37    1
    22    31    27   ar
    23    34    29    1
    24    29    28   ar
    25    22    21    1
    26    27    28   ar
    27    27    20    1
    28    28    32    1
    29    21    20   ar
    30    21    17   ar
    31    20    19   ar
    32    32    33    1
    33    15    16    3
    34    16     7    1
    35     7     6   ar
    36     7     4   ar
    37    17     4    1
    38    17    18   ar
    39     6     8    1
    40     6     3   ar
    41     4     2   ar
    42     1     3   ar
    43     1     2   ar
    44     1    10    1
    45     3     9    1
    46     2     5    1
    47    10    11    1
    48    11    12    1
    49    11    13    1
    50    19    18   ar
    51    19    26    1
    52    18    23    1
    53    26    25    3
    54    23    24    1
