@<TRIPOS>MOLECULE
mol_data/noopt/geoms/mol2/4le13fl-13dd13fd-.out
 51 54 0 0 0
SMALL
GASTEIGER

@<TRIPOS>ATOM
      1 C           0.0509    0.0309    0.0002 C.ar    1  LIG1        0.1208
      2 C           1.4592    0.0309    0.0002 C.ar    1  LIG1       -0.0096
      3 C          -0.6045    1.2792    0.0002 C.ar    1  LIG1       -0.0188
      4 C           2.1849    1.2200   -0.0004 C.ar    1  LIG1        0.0208
      5 H           1.9850   -0.9213    0.0004 H       1  LIG1        0.0661
      6 C           0.1195    2.4666   -0.0004 C.ar    1  LIG1       -0.0422
      7 C           1.5181    2.4458   -0.0008 C.ar    1  LIG1        0.0341
      8 H          -0.4090    3.4165   -0.0003 H       1  LIG1        0.0631
      9 H          -1.9035    1.3287    0.0016 H       1  LIG1        0.0654
     10 O          -0.5709   -1.1108    0.0005 O.3     1  LIG1       -0.4951
     11 C          -1.9830   -0.8853    0.0005 C.3     1  LIG1        0.0788
     12 H          -2.4943   -1.8252    0.0006 H       1  LIG1        0.0660
     13 H          -2.2556   -0.3309    0.8742 H       1  LIG1        0.0660
     14 H          -2.2557   -0.3310   -0.8731 H       1  LIG1        0.0660
     15 C           2.1896    3.5590   -0.0012 C.1     1  LIG1       -0.0690
     16 C           2.8100    4.5875   -0.0016 C.1     1  LIG1       -0.1139
     17 H           3.3627    5.5037   -0.0019 H       1  LIG1        0.1232
     18 C           3.4844    1.1831   -0.0005 C.ar    1  LIG1        0.0940
     19 C           4.3366    0.1241    0.0157 C.ar    1  LIG1        0.1851
     20 C           5.6695    0.6477    0.0079 C.ar    1  LIG1        0.1888
     21 C           5.5731    2.0035   -0.0145 C.ar    1  LIG1        0.1106
     22 N           4.2371    2.3356   -0.0192 N.ar    1  LIG1       -0.3471
     23 H           3.8736    3.2606   -0.0344 H       1  LIG1        0.1662
     24 O           3.9999   -1.1314    0.0361 O.3     1  LIG1       -0.5019
     25 H           4.7909   -1.6752    0.0411 H       1  LIG1        0.2924
     26 O           6.7709   -0.0429    0.0195 O.3     1  LIG1       -0.4895
     27 C           6.4591   -1.4385    0.0237 C.3     1  LIG1        0.0791
     28 H           7.3659   -2.0065    0.0331 H       1  LIG1        0.0660
     29 H           5.8826   -1.6726    0.8942 H       1  LIG1        0.0660
     30 H           5.8956   -1.6808   -0.8530 H       1  LIG1        0.0660
     31 C           6.5000    2.9149   -0.0291 C.ar    1  LIG1        0.0860
     32 C           7.8541    2.7959   -0.0227 C.ar    1  LIG1        0.0965
     33 C           8.3999    4.1196   -0.0452 C.ar    1  LIG1        0.0965
     34 C           7.3553    4.9893   -0.0660 C.ar    1  LIG1        0.0859
     35 N           6.1903    4.2560   -0.0558 N.ar    1  LIG1       -0.3496
     36 H           5.2713    4.6347   -0.0667 H       1  LIG1        0.1661
     37 N           9.1192    0.7022    0.0220 N.1     1  LIG1       -0.1908
     38 C           8.5263    1.6834    0.0011 C.1     1  LIG1        0.1027
     39 N          10.7733    4.7139   -0.0468 N.1     1  LIG1       -0.1908
     40 C           9.6610    4.4354   -0.0460 C.1     1  LIG1        0.1027
     41 C           7.3401    6.2890   -0.0906 C.ar    1  LIG1        0.1075
     42 C           8.3641    7.1831   -0.0911 C.ar    1  LIG1        0.1609
     43 C           7.7875    8.4936   -0.1237 C.ar    1  LIG1        0.1110
     44 C           6.4367    8.3425   -0.1435 C.ar    1  LIG1        0.0233
     45 N           6.1584    6.9944   -0.1229 N.ar    1  LIG1       -0.3554
     46 H           5.2487    6.5940   -0.1308 H       1  LIG1        0.1655
     47 H           5.4888    9.2317   -0.1751 H       1  LIG1        0.0821
     48 O           9.6321    6.8974   -0.0650 O.3     1  LIG1       -0.5034
     49 H          10.1435    7.7098   -0.0586 H       1  LIG1        0.2923
     50 N           9.0031   10.6168   -0.1416 N.1     1  LIG1       -0.1907
     51 C           8.4334    9.6217   -0.1332 C.1     1  LIG1        0.1043
@<TRIPOS>BOND
     1    14    11    1
     2    30    27    1
     3    47    44    1
     4    44    43   ar
     5    44    45   ar
     6    50    51    3
     7    51    43    1
     8    46    45    1
     9    43    42   ar
    10    45    41   ar
    11    42    41   ar
    12    42    48    1
    13    41    34    1
    14    36    35    1
    15    34    35   ar
    16    34    33   ar
    17    48    49    1
    18    35    31   ar
    19    39    40    3
    20    40    33    1
    21    33    32   ar
    22    23    22    1
    23    31    32   ar
    24    31    21    1
    25    32    38    1
    26    22    21   ar
    27    22    18   ar
    28    21    20   ar
    29    17    16    1
    30    16    15    3
    31    15     7    1
    32     7     6   ar
    33     7     4   ar
    34    18     4    1
    35    18    19   ar
    36     6     8    1
    37     6     3   ar
    38     4     2   ar
    39     1     2   ar
    40     1     3   ar
    41     1    10    1
    42     2     5    1
    43     3     9    1
    44    10    11    1
    45    11    12    1
    46    11    13    1
    47    38    37    3
    48    20    19   ar
    49    20    26    1
    50    19    24    1
    51    26    27    1
    52    27    28    1
    53    27    29    1
    54    24    25    1
