@<TRIPOS>MOLECULE
mol_data/noopt/geoms/mol2/4le13ie12ha6lh.out
 55 58 0 0 0
SMALL
GASTEIGER

@<TRIPOS>ATOM
      1 C           0.0509    0.0309    0.0002 C.ar    1  LIG1        0.1208
      2 C           1.4592    0.0309    0.0002 C.ar    1  LIG1       -0.0097
      3 C          -0.6045    1.2792    0.0002 C.ar    1  LIG1       -0.0188
      4 C           2.1849    1.2200   -0.0004 C.ar    1  LIG1        0.0174
      5 H           1.9850   -0.9213    0.0004 H       1  LIG1        0.0661
      6 C           0.1195    2.4666   -0.0004 C.ar    1  LIG1       -0.0422
      7 C           1.5181    2.4458   -0.0008 C.ar    1  LIG1        0.0340
      8 H          -0.4090    3.4165   -0.0003 H       1  LIG1        0.0631
      9 H          -1.9035    1.3287    0.0016 H       1  LIG1        0.0654
     10 O          -0.5709   -1.1108    0.0005 O.3     1  LIG1       -0.4951
     11 C          -1.9830   -0.8853    0.0005 C.3     1  LIG1        0.0788
     12 H          -2.4943   -1.8252    0.0006 H       1  LIG1        0.0660
     13 H          -2.2556   -0.3309    0.8742 H       1  LIG1        0.0660
     14 H          -2.2557   -0.3310   -0.8731 H       1  LIG1        0.0660
     15 C           2.1896    3.5590   -0.0012 C.1     1  LIG1       -0.0690
     16 C           2.8100    4.5875   -0.0016 C.1     1  LIG1       -0.1139
     17 H           3.3627    5.5037   -0.0019 H       1  LIG1        0.1232
     18 C           3.4844    1.1831   -0.0005 C.ar    1  LIG1        0.0524
     19 C           4.3366    0.1240   -0.0009 C.ar    1  LIG1       -0.0091
     20 C           5.6695    0.6476    0.0003 C.ar    1  LIG1        0.0565
     21 C           5.5731    2.0036   -0.0004 C.ar    1  LIG1        0.1002
     22 N           4.2371    2.3357   -0.0004 N.ar    1  LIG1       -0.3505
     23 H           3.8737    3.2609   -0.0009 H       1  LIG1        0.1660
     24 C           3.9998   -1.1319   -0.0008 C.3     1  LIG1       -0.0365
     25 H           4.7512   -1.7027    0.5036 H       1  LIG1        0.0279
     26 H           3.9074   -1.4765   -1.0096 H       1  LIG1        0.0279
     27 H           3.0635   -1.2500    0.5036 H       1  LIG1        0.0279
     28 C           6.7708   -0.0431    0.0013 C.1     1  LIG1       -0.0672
     29 C           7.7885   -0.6812    0.0023 C.1     1  LIG1       -0.1138
     30 H           8.6950   -1.2497    0.0031 H       1  LIG1        0.1232
     31 C           6.5000    2.9151    0.0001 C.ar    1  LIG1        0.1735
     32 C           7.8794    2.9150    0.0153 C.ar    1  LIG1        0.0731
     33 C           8.2945    4.3022    0.0051 C.ar    1  LIG1        0.0058
     34 C           7.1407    5.0584   -0.0158 C.ar    1  LIG1        0.1427
     35 O           6.0210    4.2258   -0.0193 O.2     1  LIG1       -0.4512
     36 N           8.6748    1.8868    0.0350 N.pl3   1  LIG1       -0.3550
     37 H           8.2373    1.1180   -0.4312 H       1  LIG1        0.1424
     38 H           9.5289    2.1171   -0.4313 H       1  LIG1        0.1424
     39 H           9.5237    4.7253    0.0141 H       1  LIG1        0.0674
     40 C           5.5294    6.7676   -0.0412 C.ar    1  LIG1        0.2255
     41 C           6.8661    6.3290   -0.0323 C.ar    1  LIG1        0.0805
     42 C           7.8820    7.2865   -0.0413 C.ar    1  LIG1       -0.0238
     43 C           7.5318    8.6377   -0.0589 C.ar    1  LIG1        0.0438
     44 C           6.1665    8.9775   -0.0669 C.ar    1  LIG1        0.0520
     45 N           5.1736    8.0668   -0.0582 N.ar    1  LIG1       -0.2189
     46 H           8.9381    6.9817   -0.0358 H       1  LIG1        0.0645
     47 H           5.7905   10.2218   -0.0832 H       1  LIG1        0.0849
     48 O           4.5487    5.9142   -0.0333 O.3     1  LIG1       -0.4792
     49 C           3.3037    6.6177   -0.0304 C.3     1  LIG1        0.0804
     50 H           2.4969    5.9149   -0.0240 H       1  LIG1        0.0660
     51 H           3.2452    7.2357    0.8411 H       1  LIG1        0.0660
     52 H           3.2374    7.2289   -0.9061 H       1  LIG1        0.0660
     53 N           8.4405    9.5674   -0.0681 N.pl3   1  LIG1       -0.3568
     54 H           9.2550    9.2327   -0.5418 H       1  LIG1        0.1424
     55 H           8.0872   10.3741   -0.5419 H       1  LIG1        0.1424
@<TRIPOS>BOND
     1    26    24    1
     2    52    49    1
     3    14    11    1
     4    55    53    1
     5    54    53    1
     6    38    36    1
     7    37    36    1
     8    47    44    1
     9    53    43    1
    10    44    43   ar
    11    44    45   ar
    12    43    42   ar
    13    45    40   ar
    14    42    46    1
    15    42    41   ar
    16    40    48    1
    17    40    41   ar
    18    48    49    1
    19    41    34    1
    20    49    50    1
    21    49    51    1
    22    35    34   ar
    23    35    31   ar
    24    34    33   ar
    25    17    16    1
    26    16    15    3
    27    15     7    1
    28    19    24    1
    29    19    18   ar
    30    19    20   ar
    31    23    22    1
    32    24    27    1
    33    24    25    1
    34     7     6   ar
    35     7     4   ar
    36    18     4    1
    37    18    22   ar
    38     6     8    1
    39     6     3   ar
    40     4     2   ar
    41    22    21   ar
    42    21    31    1
    43    21    20   ar
    44    31    32   ar
    45     1     2   ar
    46     1     3   ar
    47     1    10    1
    48     2     5    1
    49     3     9    1
    50    20    28    1
    51    10    11    1
    52    11    12    1
    53    11    13    1
    54    28    29    3
    55    29    30    1
    56    33    39    1
    57    33    32   ar
    58    32    36    1
