@<TRIPOS>MOLECULE
mol_data/noopt/geoms/mol2/4le13ie(120)4li(280)12df(140).out
 57 60 0 0 0
SMALL
GASTEIGER

@<TRIPOS>ATOM
      1 C           0.0509    0.0309    0.0002 C.ar    1  LIG1        0.1208
      2 C           1.4592    0.0309    0.0002 C.ar    1  LIG1       -0.0097
      3 C          -0.6045    1.2792    0.0002 C.ar    1  LIG1       -0.0188
      4 C           2.1849    1.2200   -0.0004 C.ar    1  LIG1        0.0174
      5 H           1.9850   -0.9213    0.0004 H       1  LIG1        0.0661
      6 C           0.1195    2.4666   -0.0004 C.ar    1  LIG1       -0.0422
      7 C           1.5181    2.4458   -0.0008 C.ar    1  LIG1        0.0340
      8 H          -0.4090    3.4165   -0.0003 H       1  LIG1        0.0631
      9 H          -1.9035    1.3287    0.0016 H       1  LIG1        0.0654
     10 O          -0.5709   -1.1108    0.0005 O.3     1  LIG1       -0.4951
     11 C          -1.9830   -0.8853    0.0005 C.3     1  LIG1        0.0788
     12 H          -2.4943   -1.8252    0.0006 H       1  LIG1        0.0660
     13 H          -2.2556   -0.3309    0.8742 H       1  LIG1        0.0660
     14 H          -2.2557   -0.3310   -0.8731 H       1  LIG1        0.0660
     15 C           2.1896    3.5590   -0.0012 C.1     1  LIG1       -0.0690
     16 C           2.8100    4.5875   -0.0016 C.1     1  LIG1       -0.1139
     17 H           3.3627    5.5037   -0.0019 H       1  LIG1        0.1232
     18 C           3.4844    1.1831   -0.0005 C.ar    1  LIG1        0.0523
     19 C           4.3816    1.7073    0.8759 C.ar    1  LIG1       -0.0092
     20 C           5.6901    1.3729    0.3997 C.ar    1  LIG1        0.0535
     21 C           5.5348    0.6576   -0.7458 C.ar    1  LIG1        0.0663
     22 N           4.1860    0.5395   -0.9948 N.ar    1  LIG1       -0.3528
     23 H           3.7828    0.0643   -1.7691 H       1  LIG1        0.1659
     24 C           4.0999    2.3878    1.9475 C.3     1  LIG1       -0.0365
     25 H           3.3744    1.8562    2.5272 H       1  LIG1        0.0279
     26 H           3.7045    3.3426    1.6700 H       1  LIG1        0.0279
     27 H           4.9888    2.5247    2.5271 H       1  LIG1        0.0279
     28 C           6.8202    1.6921    0.9574 C.1     1  LIG1       -0.0673
     29 C           7.8643    1.9871    1.4727 C.1     1  LIG1       -0.1138
     30 H           8.7945    2.2499    1.9317 H       1  LIG1        0.1232
     31 C           6.1578    0.0424   -2.9224 C.ar    1  LIG1        0.1299
     32 C           7.1490   -0.5336   -3.7405 C.ar    1  LIG1       -0.0083
     33 C           6.4209    0.1345   -1.5403 C.ar    1  LIG1        0.0414
     34 C           8.3498   -0.9975   -3.2082 C.ar    1  LIG1        0.0251
     35 H           6.9664   -0.6146   -4.8097 H       1  LIG1        0.0661
     36 C           7.6196   -0.3284   -1.0085 C.ar    1  LIG1       -0.0455
     37 C           8.5920   -0.8972   -1.8376 C.ar    1  LIG1       -0.0389
     38 H           7.7987   -0.2463    0.0606 H       1  LIG1        0.0628
     39 O           5.0577    0.4574   -3.4770 O.3     1  LIG1       -0.4944
     40 C           5.1296    1.8710   -3.6807 C.3     1  LIG1        0.0788
     41 H           4.2241    2.2121   -4.1374 H       1  LIG1        0.0660
     42 H           5.2604    2.3610   -2.7385 H       1  LIG1        0.0660
     43 H           5.9581    2.0978   -4.3187 H       1  LIG1        0.0660
     44 C           9.7108   -1.3285   -1.3347 C.3     1  LIG1       -0.0390
     45 H          10.1499   -0.5614   -0.7315 H       1  LIG1        0.0278
     46 H          10.3819   -1.5871   -2.1270 H       1  LIG1        0.0278
     47 H           9.5214   -2.1918   -0.7316 H       1  LIG1        0.0278
     48 C           9.2430   -1.5237   -3.9927 C.ar    1  LIG1        0.1562
     49 C          10.6122   -1.4256   -4.1292 C.ar    1  LIG1        0.1387
     50 C          10.9834   -2.2971   -5.2245 C.ar    1  LIG1        0.1728
     51 C           9.8158   -2.8703   -5.6847 C.ar    1  LIG1        0.1352
     52 O           8.7290   -2.4091   -4.9411 O.2     1  LIG1       -0.4578
     53 H           9.5058   -3.7150   -6.6230 H       1  LIG1        0.1068
     54 N          12.1550   -0.0625   -2.8073 N.1     1  LIG1       -0.1906
     55 C          11.4320   -0.7013   -3.4268 C.1     1  LIG1        0.1067
     56 O          12.1910   -2.4846   -5.6677 O.3     1  LIG1       -0.5028
     57 H          12.6275   -1.6366   -5.7770 H       1  LIG1        0.2923
@<TRIPOS>BOND
     1    53    51    1
     2    57    56    1
     3    51    50   ar
     4    51    52   ar
     5    56    50    1
     6    50    49   ar
     7    52    48   ar
     8    35    32    1
     9    43    40    1
    10    41    40    1
    11    49    48   ar
    12    49    55    1
    13    48    34    1
    14    32    34   ar
    15    32    31   ar
    16    40    39    1
    17    40    42    1
    18    39    31    1
    19    55    54    3
    20    34    37   ar
    21    31    33   ar
    22    46    44    1
    23    37    44    1
    24    37    36   ar
    25    23    22    1
    26    33    36   ar
    27    33    21    1
    28    44    47    1
    29    44    45    1
    30    36    38    1
    31    22    21   ar
    32    22    18   ar
    33    14    11    1
    34    21    20   ar
    35    17    16    1
    36    16    15    3
    37    15     7    1
    38     7     6   ar
    39     7     4   ar
    40    18     4    1
    41    18    19   ar
    42     6     8    1
    43     6     3   ar
    44     4     2   ar
    45     1     2   ar
    46     1     3   ar
    47     1    10    1
    48     2     5    1
    49     3     9    1
    50    10    11    1
    51    11    12    1
    52    11    13    1
    53    20    19   ar
    54    20    28    1
    55    19    24    1
    56    28    29    3
    57    29    30    1
    58    26    24    1
    59    24    27    1
    60    24    25    1
