@<TRIPOS>MOLECULE
mol_data/noopt/geoms/mol2/4le4le-4le.out
 50 50 0 0 0
SMALL
GASTEIGER

@<TRIPOS>ATOM
      1 C           0.0509    0.0309    0.0002 C.ar    1  LIG1        0.1207
      2 C           1.4592    0.0309    0.0002 C.ar    1  LIG1       -0.0121
      3 C          -0.6045    1.2792    0.0002 C.ar    1  LIG1       -0.0196
      4 C           2.1849    1.2200   -0.0004 C.ar    1  LIG1       -0.0107
      5 H           1.9850   -0.9213    0.0004 H       1  LIG1        0.0660
      6 C           0.1195    2.4666   -0.0004 C.ar    1  LIG1       -0.0538
      7 C           1.5181    2.4458   -0.0008 C.ar    1  LIG1       -0.0280
      8 H          -0.4090    3.4165   -0.0003 H       1  LIG1        0.0622
      9 H          -1.9035    1.3287    0.0016 H       1  LIG1        0.0654
     10 O          -0.5709   -1.1108    0.0005 O.3     1  LIG1       -0.4951
     11 C          -1.9830   -0.8853    0.0005 C.3     1  LIG1        0.0788
     12 H          -2.4943   -1.8252    0.0006 H       1  LIG1        0.0660
     13 H          -2.2556   -0.3309    0.8742 H       1  LIG1        0.0660
     14 H          -2.2557   -0.3310   -0.8731 H       1  LIG1        0.0660
     15 C           2.1896    3.5590   -0.0012 C.3     1  LIG1        0.0607
     16 C           2.8100    4.5875   -0.0016 C.3     1  LIG1        0.1089
     17 H           3.3627    5.5037   -0.0019 H       1  LIG1        0.0739
     18 C           4.2212    2.3851    0.0002 C.2     1  LIG1        0.1256
     19 C           5.6264    2.2916    0.0016 C.2     1  LIG1       -0.0112
     20 C           3.4843    1.1831   -0.0005 C.2     1  LIG1        0.0061
     21 C           6.2715    1.0569    0.0017 C.2     1  LIG1       -0.0028
     22 H           6.2143    3.2067    0.0024 H       1  LIG1        0.0660
     23 C           4.1278   -0.0498   -0.0004 C.3     1  LIG1        0.0032
     24 C           5.5247   -0.1219    0.0006 C.3     1  LIG1       -0.0091
     25 H           3.5374   -0.9625   -0.0009 H       1  LIG1        0.0362
     26 O           3.6766    3.5656   -0.0001 O.2     1  LIG1       -0.4878
     27 C           4.7008    4.5636   -0.0003 C.3     1  LIG1       -0.0269
     28 H           4.2522    5.5351   -0.0007 H       1  LIG1        0.0265
     29 H           5.3081    4.4516    0.8736 H       1  LIG1        0.0265
     30 H           5.3084    4.4510   -0.8737 H       1  LIG1        0.0265
     31 C           6.1208   -1.2772    0.0008 C.3     2  LIG2       -0.0309
     32 C           6.6715   -2.3447    0.0010 C.3     2  LIG2       -0.0309
     33 H           7.1621   -3.2956    0.0012 H       2  LIG2        0.0309
     34 C           8.2259   -0.2409    0.0043 C.ar    1  LIG1        0.1867
     35 C           9.6342   -0.2409    0.0071 C.ar    1  LIG1       -0.0132
     36 C           7.5705    1.0074    0.0029 C.ar    1  LIG1        0.0306
     37 C          10.3599    0.9482    0.0079 C.ar    1  LIG1       -0.0427
     38 H          10.1600   -1.1931    0.0084 H       1  LIG1        0.0656
     39 C           8.2945    2.1948    0.0036 C.ar    1  LIG1       -0.0349
     40 C           9.6931    2.1740    0.0060 C.ar    1  LIG1        0.0255
     41 H           7.7660    3.1447    0.0026 H       1  LIG1        0.0637
     42 H          11.6594    0.9113    0.0104 H       1  LIG1        0.0631
     43 O           7.6041   -1.3826    0.0034 O.3     1  LIG1       -0.2873
     44 C           6.1920   -1.1571    0.0031 C.3     1  LIG1       -0.0452
     45 H           5.6807   -2.0970    0.0022 H       2  LIG2        0.0309
     46 H           5.9190   -0.6034    0.8770 H       1  LIG1        0.0271
     47 H           5.9197   -0.6021   -0.8703 H       1  LIG1        0.0271
     48 C          10.3646    3.2871    0.0069 C.1     1  LIG1       -0.0696
     49 C          10.9850    4.3157    0.0077 C.1     1  LIG1       -0.1139
     50 H          11.5377    5.2319    0.0084 H       1  LIG1        0.1232
@<TRIPOS>BOND
     1    30    27    1
     2    14    11    1
     3    47    44    1
     4    17    16    1
     5    16    15    1
     6    16    27    1
     7    16    26    1
     8    15     7    1
     9    25    23    1
    10     7     4   ar
    11     7     6   ar
    12    28    27    1
    13    20    23    1
    14    20     4    1
    15    20    18    2
    16     4     2   ar
    17     6     8    1
    18     6     3   ar
    19    27    29    1
    20    26    18    1
    21    18    19    1
    22     1     2   ar
    23     1     3   ar
    24     1    10    1
    25     2     5    1
    26     3     9    1
    27    10    11    1
    28    11    12    1
    29    11    13    1
    30    24    44    1
    31    31    32    1
    32    31    45    1
    33    32    33    1
    34    19    21    2
    35    19    22    1
    36    21    36    1
    37    41    39    1
    38    36    39   ar
    39    36    34   ar
    40    44    46    1
    41    43    34    1
    42    39    40   ar
    43    34    35   ar
    44    40    48    1
    45    40    37   ar
    46    48    49    3
    47    35    37   ar
    48    35    38    1
    49    49    50    1
    50    37    42    1
