@<TRIPOS>MOLECULE
mol_data/noopt/geoms/mol2/4le4le-4le4le.out
 66 65 0 0 0
SMALL
GASTEIGER

@<TRIPOS>ATOM
      1 C           0.0509    0.0309    0.0002 C.ar    1  LIG1        0.1207
      2 C           1.4592    0.0309    0.0002 C.ar    1  LIG1       -0.0122
      3 C          -0.6045    1.2792    0.0002 C.ar    1  LIG1       -0.0196
      4 C           2.1849    1.2200   -0.0004 C.ar    1  LIG1       -0.0110
      5 H           1.9850   -0.9213    0.0004 H       1  LIG1        0.0660
      6 C           0.1195    2.4666   -0.0004 C.ar    1  LIG1       -0.0538
      7 C           1.5181    2.4458   -0.0008 C.ar    1  LIG1       -0.0280
      8 H          -0.4090    3.4165   -0.0003 H       1  LIG1        0.0622
      9 H          -1.9035    1.3287    0.0016 H       1  LIG1        0.0654
     10 O          -0.5709   -1.1108    0.0005 O.3     1  LIG1       -0.4951
     11 C          -1.9830   -0.8853    0.0005 C.3     1  LIG1        0.0788
     12 H          -2.4943   -1.8252    0.0006 H       1  LIG1        0.0660
     13 H          -2.2556   -0.3309    0.8742 H       1  LIG1        0.0660
     14 H          -2.2557   -0.3310   -0.8731 H       1  LIG1        0.0660
     15 C           2.1896    3.5590   -0.0012 C.3     1  LIG1        0.0607
     16 C           2.8100    4.5875   -0.0016 C.3     1  LIG1        0.1085
     17 H           3.3627    5.5037   -0.0019 H       1  LIG1        0.0739
     18 C           4.2212    2.3851    0.0002 C.2     1  LIG1        0.1105
     19 C           5.6264    2.2916    0.0016 C.3     1  LIG1        0.0559
     20 C           3.4843    1.1831   -0.0005 C.2     1  LIG1        0.0025
     21 C           6.2715    1.0569    0.0017 C.2     1  LIG1       -0.0292
     22 H           6.2143    3.2067    0.0024 H       1  LIG1        0.0438
     23 C           4.1278   -0.0498   -0.0004 C.3     1  LIG1        0.0029
     24 C           5.5247   -0.1219    0.0006 C.3     1  LIG1       -0.0091
     25 H           3.5374   -0.9625   -0.0009 H       1  LIG1        0.0362
     26 O           3.6766    3.5656   -0.0001 O.2     1  LIG1       -0.4915
     27 C           4.7008    4.5636   -0.0003 C.3     1  LIG1       -0.0269
     28 H           4.2522    5.5351   -0.0007 H       1  LIG1        0.0265
     29 H           5.3081    4.4516    0.8736 H       1  LIG1        0.0265
     30 H           5.3084    4.4510   -0.8737 H       1  LIG1        0.0265
     31 C           6.1208   -1.2772    0.0008 C.3     2  LIG2       -0.0309
     32 C           6.6715   -2.3447    0.0010 C.3     2  LIG2       -0.0309
     33 H           7.1621   -3.2956    0.0012 H       2  LIG2        0.0309
     34 C           8.2259   -0.2409    0.0043 C.3     1  LIG1        0.2041
     35 C           9.6342   -0.2409    0.0071 C.3     2  LIG2       -0.0531
     36 C           7.5705    1.0074    0.0029 C.2     1  LIG1       -0.0154
     37 C          10.3599    0.9482    0.0079 C.2     1  LIG1        0.0063
     38 H          10.1600   -1.1931    0.0084 H       3  LIG3        0.0265
     39 C           8.2945    2.1948    0.0036 C.3     1  LIG1        0.0284
     40 C           9.6931    2.1740    0.0060 C.2     1  LIG1        0.0187
     41 H           7.7660    3.1447    0.0026 H       1  LIG1        0.0411
     42 O           7.6041   -1.3826    0.0034 O.3     1  LIG1       -0.2155
     43 C           6.1920   -1.1571    0.0031 C.3     1  LIG1       -0.0452
     44 H           5.6807   -2.0970    0.0022 H       2  LIG2        0.0309
     45 H           5.9190   -0.6034    0.8770 H       1  LIG1        0.0271
     46 H           5.9197   -0.6021   -0.8703 H       1  LIG1        0.0271
     47 C          10.3646    3.2871    0.0069 C.1     1  LIG1       -0.0728
     48 C          10.9850    4.3157    0.0077 C.1     1  LIG1       -0.1142
     49 H          11.5377    5.2319    0.0084 H       1  LIG1        0.1231
     50 C          12.3268   -0.3306    0.0125 C.ar    1  LIG1        0.1285
     51 C          13.7350   -0.3169    0.0167 C.ar    1  LIG1       -0.0182
     52 C          11.6593    0.9113    0.0104 C.ar    1  LIG1        0.0264
     53 C          14.4491    0.8791    0.0181 C.ar    1  LIG1       -0.0428
     54 H          14.2700   -1.2640    0.0186 H       1  LIG1        0.0655
     55 C          12.3718    2.1056    0.0118 C.ar    1  LIG1       -0.0351
     56 C          13.7705    2.0984    0.0156 C.ar    1  LIG1        0.0255
     57 H          11.8341    3.0504    0.0102 H       1  LIG1        0.0637
     58 H          15.7489    0.8548    0.0219 H       1  LIG1        0.0631
     59 O          11.7161   -1.4783    0.0110 O.3     1  LIG1       -0.4880
     60 C          10.3019   -1.2665    0.0104 C.3     1  LIG1        0.1235
     61 H           9.7997   -2.2113    0.0091 H       1  LIG1        0.0731
     62 H          10.0233   -0.7157    0.8846 H       1  LIG1        0.0731
     63 H          10.0244   -0.7138   -0.8627 H       3  LIG3        0.0265
     64 C          14.4311    3.2180    0.0171 C.1     1  LIG1       -0.0696
     65 C          15.0416    4.2526    0.0185 C.1     1  LIG1       -0.1139
     66 H          15.5853    5.1741    0.0197 H       1  LIG1        0.1232
@<TRIPOS>BOND
     1    30    27    1
     2    14    11    1
     3    46    43    1
     4    63    35    1
     5    17    16    1
     6    16    15    1
     7    16    27    1
     8    16    26    1
     9    15     7    1
    10    25    23    1
    11     7     6   ar
    12     7     4   ar
    13    28    27    1
    14    20    23    1
    15    20     4    1
    16    20    18    2
    17     6     8    1
    18     6     3   ar
    19     4     2   ar
    20    27    29    1
    21    26    18    1
    22    18    19    1
    23     2     1   ar
    24     2     5    1
    25     1     3   ar
    26     1    10    1
    27     3     9    1
    28    10    11    1
    29    11    12    1
    30    11    13    1
    31    24    43    1
    32    31    32    1
    33    31    44    1
    34    32    33    1
    35    19    21    1
    36    19    22    1
    37    21    36    2
    38    41    39    1
    39    36    39    1
    40    36    34    1
    41    43    45    1
    42    42    34    1
    43    39    40    1
    44    40    47    1
    45    40    37    2
    46    47    48    3
    47    35    38    1
    48    48    49    1
    49    37    52    1
    50    61    60    1
    51    57    55    1
    52    52    55   ar
    53    52    50   ar
    54    60    59    1
    55    60    62    1
    56    59    50    1
    57    55    56   ar
    58    50    51   ar
    59    56    64    1
    60    56    53   ar
    61    51    53   ar
    62    51    54    1
    63    64    65    3
    64    53    58    1
    65    65    66    1
