@<TRIPOS>MOLECULE
mol_data/noopt/geoms/mol2/4le4le4le-4le.out
 66 65 0 0 0
SMALL
GASTEIGER

@<TRIPOS>ATOM
      1 C           0.0509    0.0309    0.0002 C.2     1  LIG1        0.1579
      2 C           1.4592    0.0309    0.0002 C.3     2  LIG2       -0.0681
      3 C          -0.6045    1.2792    0.0002 C.2     1  LIG1       -0.0297
      4 C           2.1849    1.2200   -0.0004 C.2     1  LIG1        0.0063
      5 H           1.9850   -0.9213    0.0004 H       1  LIG1        0.0227
      6 C           0.1195    2.4666   -0.0004 C.3     1  LIG1        0.0254
      7 C           1.5181    2.4458   -0.0008 C.2     1  LIG1        0.0185
      8 H          -0.4090    3.4165   -0.0003 H       1  LIG1        0.0408
      9 H          -1.9035    1.3287    0.0016 H       1  LIG1        0.0616
     10 O          -0.5709   -1.1108    0.0005 O.2     1  LIG1       -0.4918
     11 C          -1.9830   -0.8853    0.0005 C.3     1  LIG1        0.0789
     12 H          -2.4943   -1.8252    0.0006 H       1  LIG1        0.0660
     13 H          -2.2556   -0.3309    0.8742 H       1  LIG1        0.0660
     14 H          -2.2557   -0.3310   -0.8731 H       1  LIG1        0.0660
     15 C           2.1896    3.5590   -0.0012 C.1     1  LIG1       -0.0728
     16 C           2.8100    4.5875   -0.0016 C.1     1  LIG1       -0.1142
     17 H           3.3627    5.5037   -0.0019 H       1  LIG1        0.1231
     18 C           4.1518   -0.0588    0.0002 C.ar    1  LIG1        0.1296
     19 C           5.5600   -0.0451    0.0016 C.ar    1  LIG1       -0.0115
     20 C           3.4843    1.1831   -0.0005 C.ar    1  LIG1        0.0256
     21 C           6.2742    1.1510    0.0017 C.ar    1  LIG1       -0.0107
     22 H           6.0950   -0.9922    0.0024 H       1  LIG1        0.0660
     23 C           4.1968    2.3775   -0.0004 C.ar    1  LIG1       -0.0460
     24 C           5.5955    2.3702    0.0006 C.ar    1  LIG1       -0.0274
     25 H           3.6591    3.3222   -0.0009 H       1  LIG1        0.0628
     26 O           3.5411   -1.2065   -0.0001 O.3     1  LIG1       -0.4805
     27 C           2.1269   -0.9946   -0.0003 C.3     1  LIG1        0.1805
     28 H           1.6247   -1.9395   -0.0006 H       1  LIG1        0.0811
     29 H           1.8487   -0.4432    0.8736 H       1  LIG1        0.0227
     30 H           1.8490   -0.4427   -0.8737 H       1  LIG1        0.0227
     31 C           6.2561    3.4899    0.0008 C.3     1  LIG1        0.0607
     32 C           6.8666    4.5244    0.0010 C.3     1  LIG1        0.1089
     33 H           7.4103    5.4459    0.0012 H       1  LIG1        0.0739
     34 C           8.2991    2.3358    0.0043 C.2     1  LIG1        0.1256
     35 C           9.7051    2.2559    0.0071 C.2     1  LIG1       -0.0112
     36 C           7.5739    1.1267    0.0029 C.2     1  LIG1        0.0061
     37 C          10.3621    1.0275    0.0079 C.2     1  LIG1       -0.0028
     38 H          10.2841    3.1767    0.0084 H       1  LIG1        0.0660
     39 C           8.2293   -0.0999    0.0037 C.3     1  LIG1        0.0032
     40 C           9.6269   -0.1585    0.0061 C.3     2  LIG2       -0.0309
     41 H           7.6478   -1.0183    0.0026 H       1  LIG1        0.0362
     42 O           7.7431    3.5109    0.0034 O.2     1  LIG1       -0.4878
     43 C           8.7575    4.5188    0.0030 C.3     1  LIG1       -0.0269
     44 H           8.2995    5.4859    0.0022 H       1  LIG1        0.0265
     45 H           9.3657    4.4131    0.8770 H       1  LIG1        0.0265
     46 H           9.3663    4.4118   -0.8703 H       1  LIG1        0.0265
     47 C          10.2341   -1.3080    0.0069 C.3     3  LIG3       -0.0309
     48 C          10.7952   -2.3701    0.0077 C.3     3  LIG3       -0.0309
     49 H          11.2950   -3.3162    0.0084 H       3  LIG3        0.0309
     50 C          12.3290   -0.2513    0.0125 C.ar    1  LIG1        0.1867
     51 C          13.7373   -0.2376    0.0167 C.ar    1  LIG1       -0.0132
     52 C          11.6616    0.9906    0.0104 C.ar    1  LIG1        0.0306
     53 C          14.4514    0.9585    0.0181 C.ar    1  LIG1       -0.0427
     54 H          14.2723   -1.1847    0.0186 H       1  LIG1        0.0656
     55 C          12.3740    2.1850    0.0118 C.ar    1  LIG1       -0.0349
     56 C          13.7727    2.1777    0.0156 C.ar    1  LIG1        0.0255
     57 H          11.8363    3.1297    0.0102 H       1  LIG1        0.0637
     58 H          15.7512    0.9342    0.0219 H       1  LIG1        0.0631
     59 O          11.7184   -1.3990    0.0110 O.3     1  LIG1       -0.2873
     60 C          10.3041   -1.1871    0.0104 C.3     2  LIG2       -0.0309
     61 H           9.8019   -2.1320    0.0091 H       3  LIG3        0.0309
     62 H          10.0256   -0.6364    0.8846 H       2  LIG2        0.0309
     63 H          10.0266   -0.6345   -0.8627 H       2  LIG2        0.0309
     64 C          14.4334    3.2973    0.0171 C.1     1  LIG1       -0.0696
     65 C          15.0438    4.3319    0.0185 C.1     1  LIG1       -0.1139
     66 H          15.5876    5.2534    0.0197 H       1  LIG1        0.1232
@<TRIPOS>BOND
     1    30     2    1
     2    14    11    1
     3    46    43    1
     4    63    40    1
     5    17    16    1
     6    16    15    3
     7    15     7    1
     8    25    23    1
     9     7     6    1
    10     7     4    2
    11    28    27    1
    12    20    23   ar
    13    20     4    1
    14    20    18   ar
    15    23    24   ar
    16     6     8    1
    17     6     3    1
    18    27    26    1
    19    26    18    1
    20     2     5    1
    21     2    29    1
    22     1     3    2
    23     1    10    1
    24     3     9    1
    25    18    19   ar
    26    10    11    1
    27    11    12    1
    28    11    13    1
    29    24    31    1
    30    24    21   ar
    31    31    32    1
    32    32    33    1
    33    32    43    1
    34    32    42    1
    35    19    21   ar
    36    19    22    1
    37    21    36    1
    38    44    43    1
    39    41    39    1
    40    36    39    1
    41    36    34    2
    42    43    45    1
    43    42    34    1
    44    34    35    1
    45    40    60    1
    46    47    48    1
    47    47    61    1
    48    35    37    2
    49    35    38    1
    50    48    49    1
    51    37    52    1
    52    57    55    1
    53    52    55   ar
    54    52    50   ar
    55    60    62    1
    56    59    50    1
    57    55    56   ar
    58    50    51   ar
    59    56    64    1
    60    56    53   ar
    61    51    53   ar
    62    51    54    1
    63    64    65    3
    64    53    58    1
    65    65    66    1
