@<TRIPOS>MOLECULE
mol_data/noopt/geoms/mol2/4le4le4le4le.out
 66 63 0 0 0
SMALL
GASTEIGER

@<TRIPOS>ATOM
      1 C           0.0509    0.0309    0.0002 C.2     1  LIG1        0.1615
      2 C           1.4592    0.0309    0.0002 C.3     2  LIG2       -0.0681
      3 C          -0.6045    1.2792    0.0002 C.2     1  LIG1       -0.0151
      4 C           2.1849    1.2200   -0.0004 C.2     1  LIG1        0.0052
      5 H           1.9850   -0.9213    0.0004 H       1  LIG1        0.0227
      6 C           0.1195    2.4666   -0.0004 C.2     1  LIG1       -0.0422
      7 C           1.5181    2.4458   -0.0008 C.2     1  LIG1        0.0329
      8 H          -0.4090    3.4165   -0.0003 H       1  LIG1        0.0631
      9 H          -1.9035    1.3287    0.0016 H       1  LIG1        0.0656
     10 O          -0.5709   -1.1108    0.0005 O.2     1  LIG1       -0.4915
     11 C          -1.9830   -0.8853    0.0005 C.3     1  LIG1        0.0790
     12 H          -2.4943   -1.8252    0.0006 H       1  LIG1        0.0660
     13 H          -2.2556   -0.3309    0.8742 H       1  LIG1        0.0660
     14 H          -2.2557   -0.3310   -0.8731 H       1  LIG1        0.0660
     15 C           2.1896    3.5590   -0.0012 C.1     1  LIG1       -0.0690
     16 C           2.8100    4.5875   -0.0016 C.1     1  LIG1       -0.1139
     17 H           3.3627    5.5037   -0.0019 H       1  LIG1        0.1232
     18 C           4.1518   -0.0588    0.0002 C.3     1  LIG1        0.1676
     19 C           5.5600   -0.0451    0.0016 C.3     3  LIG3       -0.0681
     20 C           3.4843    1.1831   -0.0005 C.2     1  LIG1        0.0007
     21 C           6.2742    1.1510    0.0017 C.2     1  LIG1        0.0015
     22 H           6.0950   -0.9922    0.0024 H       2  LIG2        0.0227
     23 C           4.1968    2.3775   -0.0004 C.2     1  LIG1       -0.0390
     24 C           5.5955    2.3702    0.0006 C.2     1  LIG1        0.0329
     25 H           3.6591    3.3222   -0.0009 H       1  LIG1        0.0634
     26 O           3.5411   -1.2065   -0.0001 O.3     1  LIG1       -0.3535
     27 C           2.1269   -0.9946   -0.0003 C.3     1  LIG1        0.1173
     28 H           1.6247   -1.9395   -0.0006 H       1  LIG1        0.0650
     29 H           1.8487   -0.4432    0.8736 H       1  LIG1        0.0227
     30 H           1.8490   -0.4427   -0.8737 H       1  LIG1        0.0227
     31 C           6.2561    3.4899    0.0008 C.1     1  LIG1       -0.0690
     32 C           6.8666    4.5244    0.0010 C.1     1  LIG1       -0.1139
     33 H           7.4103    5.4459    0.0012 H       1  LIG1        0.1232
     34 C           8.2534   -0.1087    0.0043 C.3     1  LIG1        0.1640
     35 C           9.6614   -0.0814    0.0071 C.3     4  LIG4       -0.0531
     36 C           7.5739    1.1267    0.0029 C.2     1  LIG1       -0.0139
     37 C          10.3639    1.1216    0.0079 C.2     1  LIG1        0.0063
     38 H          10.2056   -1.0232    0.0084 H       3  LIG3        0.0265
     39 C           8.2747    2.3279    0.0036 C.3     1  LIG1        0.0286
     40 C           9.6734    2.3342    0.0060 C.2     1  LIG1        0.0187
     41 H           7.7279    3.2674    0.0026 H       1  LIG1        0.0411
     42 O           7.6539   -1.2622    0.0034 O.3     1  LIG1       -0.3538
     43 C           6.2377   -1.0641    0.0031 C.3     1  LIG1        0.1173
     44 H           5.7446   -2.0138    0.0022 H       1  LIG1        0.0650
     45 H           5.9540   -0.5158    0.8770 H       2  LIG2        0.0227
     46 H           5.9546   -0.5145   -0.8703 H       2  LIG2        0.0227
     47 C          10.3232    3.4602    0.0069 C.1     1  LIG1       -0.0728
     48 C          10.9236    4.5006    0.0077 C.1     1  LIG1       -0.1142
     49 H          11.4584    5.4274    0.0084 H       1  LIG1        0.1231
     50 C          12.3552   -0.1188    0.0125 C.ar    1  LIG1        0.1285
     51 C          13.7629   -0.0778    0.0167 C.ar    1  LIG1       -0.0182
     52 C          11.6638    1.1099    0.0104 C.ar    1  LIG1        0.0264
     53 C          14.4537    1.1319    0.0181 C.ar    1  LIG1       -0.0428
     54 H          14.3162   -1.0143    0.0186 H       1  LIG1        0.0655
     55 C          12.3529    2.3179    0.0118 C.ar    1  LIG1       -0.0351
     56 C          13.7515    2.3378    0.0156 C.ar    1  LIG1        0.0255
     57 H          11.7970    3.2520    0.0102 H       1  LIG1        0.0637
     58 H          15.7537    1.1328    0.0219 H       1  LIG1        0.0631
     59 O          11.7669   -1.2781    0.0110 O.3     1  LIG1       -0.4880
     60 C          10.3489   -1.0938    0.0104 C.3     1  LIG1        0.1235
     61 H           9.8651   -2.0481    0.0091 H       1  LIG1        0.0731
     62 H          10.0597   -0.5486    0.8846 H       1  LIG1        0.0731
     63 H          10.0607   -0.5466   -0.8627 H       3  LIG3        0.0265
     64 C          14.3903    3.4700    0.0171 C.1     1  LIG1       -0.0696
     65 C          14.9806    4.5162    0.0185 C.1     1  LIG1       -0.1139
     66 H          15.5064    5.4481    0.0197 H       1  LIG1        0.1232
@<TRIPOS>BOND
     1    30     2    1
     2    14    11    1
     3    46    19    1
     4    63    35    1
     5    17    16    1
     6    16    15    3
     7    15     7    1
     8    25    23    1
     9     7     6    2
    10     7     4    1
    11    28    27    1
    12    20    23    1
    13    20     4    2
    14    20    18    1
    15    23    24    2
    16     6     8    1
    17     6     3    1
    18    27    26    1
    19    26    18    1
    20     2     5    1
    21     2    29    1
    22     1     3    2
    23     1    10    1
    24     3     9    1
    25    10    11    1
    26    11    12    1
    27    11    13    1
    28    24    31    1
    29    24    21    1
    30    31    32    3
    31    32    33    1
    32    19    22    1
    33    19    45    1
    34    21    36    2
    35    44    43    1
    36    41    39    1
    37    36    39    1
    38    36    34    1
    39    43    42    1
    40    42    34    1
    41    39    40    1
    42    40    47    1
    43    40    37    2
    44    47    48    3
    45    35    38    1
    46    48    49    1
    47    37    52    1
    48    61    60    1
    49    57    55    1
    50    52    55   ar
    51    52    50   ar
    52    60    59    1
    53    60    62    1
    54    59    50    1
    55    55    56   ar
    56    50    51   ar
    57    56    64    1
    58    56    53   ar
    59    51    53   ar
    60    51    54    1
    61    64    65    3
    62    53    58    1
    63    65    66    1
