@<TRIPOS>MOLECULE
mol_data/noopt/geoms/mol2/4le4le-.out
 34 36 0 0 0
SMALL
GASTEIGER

@<TRIPOS>ATOM
      1 C           0.0509    0.0309    0.0002 C.ar    1  LIG1        0.1207
      2 C           1.4592    0.0309    0.0002 C.ar    1  LIG1       -0.0118
      3 C          -0.6045    1.2792    0.0002 C.ar    1  LIG1       -0.0196
      4 C           2.1849    1.2200   -0.0004 C.ar    1  LIG1       -0.0070
      5 H           1.9850   -0.9213    0.0004 H       1  LIG1        0.0660
      6 C           0.1195    2.4666   -0.0004 C.ar    1  LIG1       -0.0538
      7 C           1.5181    2.4458   -0.0008 C.ar    1  LIG1       -0.0277
      8 H          -0.4090    3.4165   -0.0003 H       1  LIG1        0.0622
      9 H          -1.9035    1.3287    0.0016 H       1  LIG1        0.0654
     10 O          -0.5709   -1.1108    0.0005 O.3     1  LIG1       -0.4951
     11 C          -1.9830   -0.8853    0.0005 C.3     1  LIG1        0.0788
     12 H          -2.4943   -1.8252    0.0006 H       1  LIG1        0.0660
     13 H          -2.2556   -0.3309    0.8742 H       1  LIG1        0.0660
     14 H          -2.2557   -0.3310   -0.8731 H       1  LIG1        0.0660
     15 C           2.1896    3.5590   -0.0012 C.3     1  LIG1        0.0607
     16 C           2.8100    4.5875   -0.0016 C.3     1  LIG1        0.1089
     17 H           3.3627    5.5037   -0.0019 H       1  LIG1        0.0739
     18 C           4.2212    2.3851    0.0002 C.ar    1  LIG1        0.1287
     19 C           5.6264    2.2916    0.0016 C.ar    1  LIG1       -0.0182
     20 C           3.4843    1.1831   -0.0005 C.ar    1  LIG1        0.0254
     21 C           6.2715    1.0569    0.0017 C.ar    1  LIG1       -0.0428
     22 H           6.2143    3.2067    0.0024 H       1  LIG1        0.0655
     23 C           4.1278   -0.0498   -0.0004 C.ar    1  LIG1       -0.0351
     24 C           5.5247   -0.1219    0.0006 C.ar    1  LIG1        0.0255
     25 H           3.5374   -0.9625   -0.0009 H       1  LIG1        0.0637
     26 H           7.5706    1.0074    0.0029 H       1  LIG1        0.0631
     27 O           3.6766    3.5656   -0.0001 O.3     1  LIG1       -0.4875
     28 C           4.7008    4.5636   -0.0003 C.3     1  LIG1       -0.0269
     29 H           4.2522    5.5351   -0.0007 H       1  LIG1        0.0265
     30 H           5.3081    4.4516    0.8736 H       1  LIG1        0.0265
     31 H           5.3084    4.4510   -0.8737 H       1  LIG1        0.0265
     32 C           6.1208   -1.2772    0.0008 C.1     1  LIG1       -0.0696
     33 C           6.6715   -2.3447    0.0010 C.1     1  LIG1       -0.1139
     34 H           7.1621   -3.2956    0.0012 H       1  LIG1        0.1232
@<TRIPOS>BOND
     1    31    28    1
     2    14    11    1
     3    17    16    1
     4    16    15    1
     5    16    28    1
     6    16    27    1
     7    15     7    1
     8    25    23    1
     9     7     4   ar
    10     7     6   ar
    11    29    28    1
    12    20    23   ar
    13    20     4    1
    14    20    18   ar
    15    23    24   ar
    16     4     2   ar
    17     6     8    1
    18     6     3   ar
    19    28    30    1
    20    27    18    1
    21    18    19   ar
    22     1     3   ar
    23     1     2   ar
    24     1    10    1
    25     3     9    1
    26     2     5    1
    27    10    11    1
    28    11    12    1
    29    11    13    1
    30    24    32    1
    31    24    21   ar
    32    32    33    3
    33    33    34    1
    34    19    21   ar
    35    19    22    1
    36    21    26    1
