@<TRIPOS>MOLECULE
mol_data/noopt/geoms/mol2/4le4le-4le-4le-.out
 66 70 0 0 0
SMALL
GASTEIGER

@<TRIPOS>ATOM
      1 C           0.0509    0.0309    0.0002 C.ar    1  LIG1        0.1207
      2 C           1.4592    0.0309    0.0002 C.ar    1  LIG1       -0.0118
      3 C          -0.6045    1.2792    0.0002 C.ar    1  LIG1       -0.0196
      4 C           2.1849    1.2200   -0.0004 C.ar    1  LIG1       -0.0070
      5 H           1.9850   -0.9213    0.0004 H       1  LIG1        0.0660
      6 C           0.1195    2.4666   -0.0004 C.ar    1  LIG1       -0.0538
      7 C           1.5181    2.4458   -0.0008 C.ar    1  LIG1       -0.0277
      8 H          -0.4090    3.4165   -0.0003 H       1  LIG1        0.0622
      9 H          -1.9035    1.3287    0.0016 H       1  LIG1        0.0654
     10 O          -0.5709   -1.1108    0.0005 O.3     1  LIG1       -0.4951
     11 C          -1.9830   -0.8853    0.0005 C.3     1  LIG1        0.0788
     12 H          -2.4943   -1.8252    0.0006 H       1  LIG1        0.0660
     13 H          -2.2556   -0.3309    0.8742 H       1  LIG1        0.0660
     14 H          -2.2557   -0.3310   -0.8731 H       1  LIG1        0.0660
     15 C           2.1896    3.5590   -0.0012 C.3     1  LIG1        0.0607
     16 C           2.8100    4.5875   -0.0016 C.3     1  LIG1        0.1089
     17 H           3.3627    5.5037   -0.0019 H       1  LIG1        0.0739
     18 C           4.2212    2.3851    0.0002 C.ar    1  LIG1        0.1293
     19 C           5.6264    2.2916    0.0016 C.ar    1  LIG1       -0.0103
     20 C           3.4843    1.1831   -0.0005 C.ar    1  LIG1        0.0254
     21 C           6.2715    1.0569    0.0017 C.ar    1  LIG1        0.0045
     22 H           6.2143    3.2067    0.0024 H       1  LIG1        0.0661
     23 C           4.1278   -0.0498   -0.0004 C.ar    1  LIG1       -0.0345
     24 C           5.5247   -0.1219    0.0006 C.ar    1  LIG1        0.0333
     25 H           3.5374   -0.9625   -0.0009 H       1  LIG1        0.0637
     26 O           3.6766    3.5656   -0.0001 O.3     1  LIG1       -0.4875
     27 C           4.7008    4.5636   -0.0003 C.3     1  LIG1       -0.0269
     28 H           4.2522    5.5351   -0.0007 H       1  LIG1        0.0265
     29 H           5.3081    4.4516    0.8736 H       1  LIG1        0.0265
     30 H           5.3084    4.4510   -0.8737 H       1  LIG1        0.0265
     31 C           6.1208   -1.2772    0.0008 C.1     1  LIG1       -0.0690
     32 C           6.6715   -2.3447    0.0010 C.1     1  LIG1       -0.1139
     33 H           7.1621   -3.2956    0.0012 H       1  LIG1        0.1232
     34 C           8.3190    2.2022    0.0043 C.ar    1  LIG1        0.1285
     35 C           9.7232    2.0950    0.0071 C.ar    1  LIG1       -0.0104
     36 C           7.5705    1.0074    0.0029 C.ar    1  LIG1        0.0263
     37 C          10.3563    0.8541    0.0079 C.ar    1  LIG1        0.0045
     38 H          10.3199    3.0044    0.0084 H       1  LIG1        0.0661
     39 C           8.2020   -0.2317    0.0037 C.ar    1  LIG1       -0.0345
     40 C           9.5982   -0.3174    0.0061 C.ar    1  LIG1        0.0333
     41 H           7.6028   -1.1386    0.0026 H       1  LIG1        0.0637
     42 O           7.7859    3.3879    0.0034 O.3     1  LIG1       -0.4945
     43 C           8.8197    4.3760    0.0030 C.3     1  LIG1        0.0788
     44 H           8.3805    5.3517    0.0022 H       1  LIG1        0.0660
     45 H           9.4258    4.2584    0.8770 H       1  LIG1        0.0660
     46 H           9.4263    4.2571   -0.8703 H       1  LIG1        0.0660
     47 C          10.1830   -1.4784    0.0069 C.1     1  LIG1       -0.0690
     48 C          10.7233   -2.5512    0.0077 C.1     1  LIG1       -0.1139
     49 H          11.2047   -3.5068    0.0084 H       1  LIG1        0.1232
     50 C          12.4148    1.9795    0.0125 C.ar    1  LIG1        0.1279
     51 C          13.8179    1.8587    0.0167 C.ar    1  LIG1       -0.0182
     52 C          11.6548    0.7920    0.0104 C.ar    1  LIG1        0.0262
     53 C          14.4389    0.6118    0.0181 C.ar    1  LIG1       -0.0428
     54 H          14.4234    2.7623    0.0186 H       1  LIG1        0.0655
     55 C          12.2742   -0.4531    0.0118 C.ar    1  LIG1       -0.0351
     56 C          13.6695   -0.5523    0.0156 C.ar    1  LIG1        0.0255
     57 H          11.6662   -1.3542    0.0102 H       1  LIG1        0.0637
     58 H          15.7368    0.5371    0.0219 H       1  LIG1        0.0631
     59 O          11.8933    3.1704    0.0110 O.3     1  LIG1       -0.4945
     60 C          12.9366    4.1483    0.0104 C.3     1  LIG1        0.0788
     61 H          12.5069    5.1283    0.0091 H       1  LIG1        0.0660
     62 H          13.5413    4.0253    0.8846 H       1  LIG1        0.0660
     63 H          13.5422    4.0233   -0.8627 H       1  LIG1        0.0660
     64 C          14.2430   -1.7190    0.0171 C.1     1  LIG1       -0.0696
     65 C          14.7729   -2.7970    0.0185 C.1     1  LIG1       -0.1139
     66 H          15.2450   -3.7572    0.0197 H       1  LIG1        0.1232
@<TRIPOS>BOND
     1    30    27    1
     2    14    11    1
     3    46    43    1
     4    63    60    1
     5    17    16    1
     6    16    15    1
     7    16    27    1
     8    16    26    1
     9    15     7    1
    10    25    23    1
    11     7     6   ar
    12     7     4   ar
    13    28    27    1
    14    20    23   ar
    15    20     4    1
    16    20    18   ar
    17    23    24   ar
    18     6     8    1
    19     6     3   ar
    20     4     2   ar
    21    27    29    1
    22    26    18    1
    23    18    19   ar
    24     2     1   ar
    25     2     5    1
    26     1     3   ar
    27     1    10    1
    28     3     9    1
    29    10    11    1
    30    11    12    1
    31    11    13    1
    32    24    31    1
    33    24    21   ar
    34    31    32    3
    35    32    33    1
    36    19    21   ar
    37    19    22    1
    38    21    36    1
    39    44    43    1
    40    41    39    1
    41    36    39   ar
    42    36    34   ar
    43    43    42    1
    44    43    45    1
    45    42    34    1
    46    39    40   ar
    47    34    35   ar
    48    40    47    1
    49    40    37   ar
    50    47    48    3
    51    35    37   ar
    52    35    38    1
    53    48    49    1
    54    37    52    1
    55    61    60    1
    56    57    55    1
    57    52    55   ar
    58    52    50   ar
    59    60    59    1
    60    60    62    1
    61    59    50    1
    62    55    56   ar
    63    50    51   ar
    64    56    64    1
    65    56    53   ar
    66    51    53   ar
    67    51    54    1
    68    64    65    3
    69    53    58    1
    70    65    66    1
