@<TRIPOS>MOLECULE
mol_data/noopt/geoms/mol2/4le4le4le.out
 50 48 0 0 0
SMALL
GASTEIGER

@<TRIPOS>ATOM
      1 C           0.0509    0.0309    0.0002 C.2     1  LIG1        0.1615
      2 C           1.4592    0.0309    0.0002 C.3     2  LIG2       -0.0681
      3 C          -0.6045    1.2792    0.0002 C.2     1  LIG1       -0.0151
      4 C           2.1849    1.2200   -0.0004 C.2     1  LIG1        0.0015
      5 H           1.9850   -0.9213    0.0004 H       1  LIG1        0.0227
      6 C           0.1195    2.4666   -0.0004 C.2     1  LIG1       -0.0422
      7 C           1.5181    2.4458   -0.0008 C.2     1  LIG1        0.0326
      8 H          -0.4090    3.4165   -0.0003 H       1  LIG1        0.0631
      9 H          -1.9035    1.3287    0.0016 H       1  LIG1        0.0656
     10 O          -0.5709   -1.1108    0.0005 O.2     1  LIG1       -0.4915
     11 C          -1.9830   -0.8853    0.0005 C.3     1  LIG1        0.0790
     12 H          -2.4943   -1.8252    0.0006 H       1  LIG1        0.0660
     13 H          -2.2556   -0.3309    0.8742 H       1  LIG1        0.0660
     14 H          -2.2557   -0.3310   -0.8731 H       1  LIG1        0.0660
     15 C           2.1896    3.5590   -0.0012 C.1     1  LIG1       -0.0691
     16 C           2.8100    4.5875   -0.0016 C.1     1  LIG1       -0.1139
     17 H           3.3627    5.5037   -0.0019 H       1  LIG1        0.1232
     18 C           4.1518   -0.0588    0.0002 C.3     1  LIG1        0.1640
     19 C           5.5600   -0.0451    0.0016 C.3     3  LIG3       -0.0681
     20 C           3.4843    1.1831   -0.0005 C.2     1  LIG1       -0.0139
     21 C           6.2742    1.1510    0.0017 C.2     1  LIG1        0.0063
     22 H           6.0950   -0.9922    0.0024 H       2  LIG2        0.0227
     23 C           4.1968    2.3775   -0.0004 C.3     1  LIG1        0.0286
     24 C           5.5955    2.3702    0.0006 C.2     1  LIG1        0.0187
     25 H           3.6591    3.3222   -0.0009 H       1  LIG1        0.0411
     26 O           3.5411   -1.2065   -0.0001 O.3     1  LIG1       -0.3538
     27 C           2.1269   -0.9946   -0.0003 C.3     1  LIG1        0.1173
     28 H           1.6247   -1.9395   -0.0006 H       1  LIG1        0.0650
     29 H           1.8487   -0.4432    0.8736 H       1  LIG1        0.0227
     30 H           1.8490   -0.4427   -0.8737 H       1  LIG1        0.0227
     31 C           6.2561    3.4899    0.0008 C.1     1  LIG1       -0.0728
     32 C           6.8666    4.5244    0.0010 C.1     1  LIG1       -0.1142
     33 H           7.4103    5.4459    0.0012 H       1  LIG1        0.1231
     34 C           8.2534   -0.1087    0.0043 C.ar    1  LIG1        0.1291
     35 C           9.6614   -0.0814    0.0071 C.ar    1  LIG1       -0.0182
     36 C           7.5739    1.1267    0.0029 C.ar    1  LIG1        0.0265
     37 C          10.3639    1.1216    0.0079 C.ar    1  LIG1       -0.0428
     38 H          10.2056   -1.0232    0.0084 H       1  LIG1        0.0655
     39 C           8.2747    2.3279    0.0036 C.ar    1  LIG1       -0.0351
     40 C           9.6734    2.3342    0.0060 C.ar    1  LIG1        0.0255
     41 H           7.7279    3.2674    0.0026 H       1  LIG1        0.0637
     42 H          11.6639    1.1099    0.0104 H       1  LIG1        0.0631
     43 O           7.6539   -1.2622    0.0034 O.3     1  LIG1       -0.4806
     44 C           6.2377   -1.0641    0.0031 C.3     1  LIG1        0.1805
     45 H           5.7446   -2.0138    0.0022 H       1  LIG1        0.0811
     46 H           5.9540   -0.5158    0.8770 H       2  LIG2        0.0227
     47 H           5.9546   -0.5145   -0.8703 H       2  LIG2        0.0227
     48 C          10.3232    3.4602    0.0069 C.1     1  LIG1       -0.0696
     49 C          10.9236    4.5006    0.0077 C.1     1  LIG1       -0.1139
     50 H          11.4584    5.4274    0.0084 H       1  LIG1        0.1232
@<TRIPOS>BOND
     1    30     2    1
     2    14    11    1
     3    47    19    1
     4    17    16    1
     5    16    15    3
     6    15     7    1
     7    25    23    1
     8     7     4    1
     9     7     6    2
    10    28    27    1
    11    20    23    1
    12    20     4    2
    13    20    18    1
    14    23    24    1
    15     6     8    1
    16     6     3    1
    17    27    26    1
    18    26    18    1
    19     1     3    2
    20     1    10    1
    21     2     5    1
    22     2    29    1
    23     3     9    1
    24    10    11    1
    25    11    12    1
    26    11    13    1
    27    24    31    1
    28    24    21    2
    29    31    32    3
    30    32    33    1
    31    19    22    1
    32    19    46    1
    33    21    36    1
    34    45    44    1
    35    41    39    1
    36    36    39   ar
    37    36    34   ar
    38    44    43    1
    39    43    34    1
    40    39    40   ar
    41    34    35   ar
    42    40    48    1
    43    40    37   ar
    44    48    49    3
    45    35    37   ar
    46    35    38    1
    47    49    50    1
    48    37    42    1
