@<TRIPOS>MOLECULE
mol_data/noopt/geoms/mol2/4le4le.out
 34 33 0 0 0
SMALL
GASTEIGER

@<TRIPOS>ATOM
      1 C           0.0509    0.0309    0.0002 C.2     1  LIG1        0.1579
      2 C           1.4592    0.0309    0.0002 C.3     2  LIG2       -0.0681
      3 C          -0.6045    1.2792    0.0002 C.2     1  LIG1       -0.0297
      4 C           2.1849    1.2200   -0.0004 C.2     1  LIG1        0.0063
      5 H           1.9850   -0.9213    0.0004 H       1  LIG1        0.0227
      6 C           0.1195    2.4666   -0.0004 C.3     1  LIG1        0.0254
      7 C           1.5181    2.4458   -0.0008 C.2     1  LIG1        0.0185
      8 H          -0.4090    3.4165   -0.0003 H       1  LIG1        0.0408
      9 H          -1.9035    1.3287    0.0016 H       1  LIG1        0.0616
     10 O          -0.5709   -1.1108    0.0005 O.2     1  LIG1       -0.4918
     11 C          -1.9830   -0.8853    0.0005 C.3     1  LIG1        0.0789
     12 H          -2.4943   -1.8252    0.0006 H       1  LIG1        0.0660
     13 H          -2.2556   -0.3309    0.8742 H       1  LIG1        0.0660
     14 H          -2.2557   -0.3310   -0.8731 H       1  LIG1        0.0660
     15 C           2.1896    3.5590   -0.0012 C.1     1  LIG1       -0.0728
     16 C           2.8100    4.5875   -0.0016 C.1     1  LIG1       -0.1142
     17 H           3.3627    5.5037   -0.0019 H       1  LIG1        0.1231
     18 C           4.1518   -0.0588    0.0002 C.ar    1  LIG1        0.1291
     19 C           5.5600   -0.0451    0.0016 C.ar    1  LIG1       -0.0182
     20 C           3.4843    1.1831   -0.0005 C.ar    1  LIG1        0.0265
     21 C           6.2742    1.1510    0.0017 C.ar    1  LIG1       -0.0428
     22 H           6.0950   -0.9922    0.0024 H       1  LIG1        0.0655
     23 C           4.1968    2.3775   -0.0004 C.ar    1  LIG1       -0.0351
     24 C           5.5955    2.3702    0.0006 C.ar    1  LIG1        0.0255
     25 H           3.6591    3.3222   -0.0009 H       1  LIG1        0.0637
     26 H           7.5740    1.1267    0.0029 H       1  LIG1        0.0631
     27 O           3.5411   -1.2065   -0.0001 O.3     1  LIG1       -0.4806
     28 C           2.1269   -0.9946   -0.0003 C.3     1  LIG1        0.1805
     29 H           1.6247   -1.9395   -0.0006 H       1  LIG1        0.0811
     30 H           1.8487   -0.4432    0.8736 H       1  LIG1        0.0227
     31 H           1.8490   -0.4427   -0.8737 H       1  LIG1        0.0227
     32 C           6.2561    3.4899    0.0008 C.1     1  LIG1       -0.0696
     33 C           6.8666    4.5244    0.0010 C.1     1  LIG1       -0.1139
     34 H           7.4103    5.4459    0.0012 H       1  LIG1        0.1232
@<TRIPOS>BOND
     1    31     2    1
     2    14    11    1
     3    17    16    1
     4    16    15    3
     5    15     7    1
     6    25    23    1
     7     7     4    2
     8     7     6    1
     9    29    28    1
    10    20    23   ar
    11    20     4    1
    12    20    18   ar
    13    23    24   ar
    14     6     8    1
    15     6     3    1
    16    28    27    1
    17    27    18    1
    18     3     1    2
    19     3     9    1
    20     1    10    1
    21     2     5    1
    22     2    30    1
    23    18    19   ar
    24    10    11    1
    25    11    12    1
    26    11    13    1
    27    24    32    1
    28    24    21   ar
    29    32    33    3
    30    33    34    1
    31    19    21   ar
    32    19    22    1
    33    21    26    1
