@<TRIPOS>MOLECULE
mol_data/noopt/geoms/mol2/4le6fi4hf6he-13hl-6ee-12ai-4fe-.out
 107 111 0 0 0
SMALL
GASTEIGER

@<TRIPOS>ATOM
      1 C           0.0509    0.0309    0.0002 C.ar    1  LIG1        0.1207
      2 C           1.4592    0.0309    0.0002 C.ar    1  LIG1       -0.0118
      3 C          -0.6045    1.2792    0.0002 C.ar    1  LIG1       -0.0196
      4 C           2.1849    1.2200   -0.0004 C.ar    1  LIG1       -0.0055
      5 H           1.9850   -0.9213    0.0004 H       1  LIG1        0.0660
      6 C           0.1195    2.4666   -0.0004 C.ar    1  LIG1       -0.0539
      7 C           1.5181    2.4458   -0.0008 C.ar    1  LIG1       -0.0304
      8 H          -0.4090    3.4165   -0.0003 H       1  LIG1        0.0622
      9 H          -1.9035    1.3287    0.0016 H       1  LIG1        0.0654
     10 O          -0.5709   -1.1108    0.0005 O.3     1  LIG1       -0.4951
     11 C          -1.9830   -0.8853    0.0005 C.3     1  LIG1        0.0788
     12 H          -2.4943   -1.8252    0.0006 H       1  LIG1        0.0660
     13 H          -2.2556   -0.3309    0.8742 H       1  LIG1        0.0660
     14 H          -2.2557   -0.3310   -0.8731 H       1  LIG1        0.0660
     15 C           2.1896    3.5590   -0.0012 C.3     1  LIG1        0.0304
     16 C           2.8100    4.5875   -0.0016 C.3     2  LIG2       -0.0309
     17 H           3.3627    5.5037   -0.0019 H       1  LIG1        0.0309
     18 C           4.2297    2.3764   -0.0004 C.ar    1  LIG1        0.2208
     19 C           3.4844    1.1831   -0.0005 C.ar    1  LIG1        0.0445
     20 C           4.1715   -0.0322   -0.0004 C.ar    1  LIG1       -0.0391
     21 C           5.5673   -0.0149   -0.0004 C.ar    1  LIG1        0.0110
     22 C           6.2235    1.2297   -0.0005 C.ar    1  LIG1        0.0843
     23 N           5.5764    2.4115   -0.0004 N.ar    1  LIG1       -0.2118
     24 H           3.6233   -0.9849   -0.0015 H       1  LIG1        0.0632
     25 O           3.6351    3.5325   -0.0004 O.3     1  LIG1       -0.4920
     26 H           2.6838    3.4036   -0.0004 H       1  LIG1        0.2937
     27 C           6.2533   -1.1195   -0.0005 C.3     3  LIG3       -0.0681
     28 H           7.1837   -0.9617    0.5039 H       1  LIG1        0.1423
     29 H           6.4415   -1.4225   -1.0093 H       2  LIG2        0.0227
     30 H           5.6992   -1.8834    0.5039 H       2  LIG2        0.0227
     31 C           8.2870    0.1135    0.0004 C.ar    1  LIG1        0.0345
     32 C           9.6896    0.2406    0.0021 C.ar    1  LIG1       -0.0320
     33 C           7.5217    1.2976   -0.0004 C.ar    1  LIG1        0.0223
     34 C          10.3050    1.4903    0.0022 C.ar    1  LIG1       -0.0050
     35 H          10.2991   -0.6603    0.0029 H       1  LIG1        0.0642
     36 C           8.1356    2.5455   -0.0002 C.ar    1  LIG1       -0.0425
     37 C           9.5304    2.6510    0.0010 C.ar    1  LIG1       -0.0087
     38 H           7.5236    3.4438   -0.0007 H       1  LIG1        0.0631
     39 N           7.7708   -1.0796    0.0001 N.pl3   1  LIG1       -0.3574
     40 H           6.8891   -1.0612   -0.4714 H       2  LIG2        0.0227
     41 H           8.3878   -1.7096   -0.4715 H       1  LIG1        0.1423
     42 O          10.0987    3.8202    0.0013 O.3     4  HOH4       -0.4105
     43 H           9.4249    4.5040    0.0014 H       0  HOH0        0.2052
     44 C          12.2372    2.8262   -0.0166 C.ar    1  LIG1        0.1434
     45 C          11.6025    1.5708    0.0036 C.ar    1  LIG1        0.0251
     46 C          12.3965    0.4227    0.0254 C.ar    1  LIG1       -0.0331
     47 C          13.7851    0.5658    0.0261 C.ar    1  LIG1        0.0528
     48 C          14.3263    1.8643    0.0046 C.ar    1  LIG1        0.1065
     49 N          13.5752    2.9827   -0.0163 N.ar    1  LIG1       -0.2274
     50 H          11.9364   -0.5755    0.0406 H       1  LIG1        0.0638
     51 N          11.5408    3.9238   -0.0372 N.pl3   1  LIG1       -0.2488
     52 H          12.0557    4.6364   -0.5138 H       1  LIG1        0.1715
     53 H          10.6769    3.7616   -0.5138 H       0  HOH0        0.2052
     54 C          14.5676   -0.4721    0.0457 C.1     1  LIG1       -0.0674
     55 C          15.2908   -1.4310    0.0639 C.1     1  LIG1       -0.1138
     56 H          15.9349   -2.2853    0.0800 H       1  LIG1        0.1232
     57 C          15.6131    2.0490    0.0044 C.ar    1  LIG1        0.0913
     58 C          16.6331    1.1505    0.0205 C.ar    1  LIG1        0.0947
     59 C          17.8574    1.8932    0.0126 C.ar    1  LIG1        0.1665
     60 C          17.5318    3.2129   -0.0098 C.ar    1  LIG1        0.0938
     61 N          16.1588    3.3128   -0.0144 N.ar    1  LIG1       -0.3484
     62 H          15.6432    4.1625   -0.0295 H       1  LIG1        0.1661
     63 N          16.5148   -0.1439    0.0410 N.pl3   1  LIG1       -0.3534
     64 H          15.6707   -0.4089   -0.4252 H       1  LIG1        0.1425
     65 H          17.2969   -0.5575   -0.4252 H       1  LIG1        0.1425
     66 O          19.0603    1.4000    0.0241 O.3     1  LIG1       -0.4911
     67 C          18.9905   -0.0282    0.0282 C.3     1  LIG1        0.0790
     68 H          19.9807   -0.4337    0.0375 H       1  LIG1        0.0660
     69 H          18.4623   -0.3570    0.8988 H       1  LIG1        0.0660
     70 H          18.4763   -0.3628   -0.8484 H       1  LIG1        0.0660
     71 C          17.7189    5.5541   -0.0535 C.ar    1  LIG1        0.1232
     72 C          18.2901    4.2687   -0.0244 C.ar    1  LIG1        0.0370
     73 C          19.6817    4.1576   -0.0116 C.ar    1  LIG1       -0.0323
     74 C          20.4490    5.3236   -0.0282 C.ar    1  LIG1        0.0543
     75 C          19.7854    6.5639   -0.0573 C.ar    1  LIG1        0.1227
     76 N          18.4440    6.6894   -0.0698 N.ar    1  LIG1       -0.2334
     77 H          20.1639    3.1701    0.0101 H       1  LIG1        0.0638
     78 C          16.4282    5.7088   -0.0663 C.1     1  LIG1       -0.0491
     79 C          15.2356    5.8517   -0.0781 C.1     1  LIG1       -0.1124
     80 H          14.1733    5.9790   -0.0887 H       1  LIG1        0.1232
     81 C          21.7480    5.2734   -0.0174 C.1     1  LIG1       -0.0674
     82 C          22.9483    5.2271   -0.0074 C.1     1  LIG1       -0.1138
     83 H          24.0174    5.1858    0.0014 H       1  LIG1        0.1232
     84 C          20.4562    7.6773   -0.0735 C.ar    1  LIG1        0.1553
     85 C          21.7923    8.0204   -0.0858 C.ar    1  LIG1       -0.0108
     86 C          21.8489    9.4672   -0.1017 C.ar    1  LIG1       -0.0039
     87 C          20.5431    9.9126   -0.0981 C.ar    1  LIG1        0.1422
     88 O          19.6659    8.8276   -0.0809 O.2     1  LIG1       -0.4529
     89 H          22.8187    7.2225   -0.0838 H       1  LIG1        0.0659
     90 C          22.9344   10.1830   -0.1163 C.3     1  LIG1       -0.0361
     91 H          22.7560   11.1119    0.3841 H       1  LIG1        0.0279
     92 H          23.2226   10.3732   -1.1291 H       1  LIG1        0.0279
     93 H          23.7178    9.6531    0.3840 H       1  LIG1        0.0279
     94 C          20.7388   12.2504   -0.0894 C.ar    1  LIG1        0.1276
     95 C          20.0605   13.4846   -0.0982 C.ar    1  LIG1       -0.0183
     96 C          19.9608   11.0748   -0.1068 C.ar    1  LIG1        0.0600
     97 C          18.6691   13.5477   -0.1238 C.ar    1  LIG1       -0.0428
     98 H          20.6415   14.4040   -0.0849 H       1  LIG1        0.0655
     99 C          18.5717   11.1373   -0.1324 C.ar    1  LIG1       -0.0321
    100 C          17.9163   12.3729   -0.1412 C.ar    1  LIG1        0.0256
    101 H          17.9940   10.2166   -0.1453 H       1  LIG1        0.0638
    102 H          18.0755   14.7043   -0.1315 H       1  LIG1        0.0631
    103 O          22.0386   12.2555   -0.0655 O.3     1  LIG1       -0.5061
    104 H          22.3554   13.1617   -0.0596 H       1  LIG1        0.2922
    105 C          16.6175   12.4252   -0.1650 C.1     1  LIG1       -0.0696
    106 C          15.4175   12.4734   -0.1869 C.1     1  LIG1       -0.1139
    107 H          14.3486   12.5164   -0.2065 H       1  LIG1        0.1232
@<TRIPOS>BOND
     1    92    90    1
     2    29    27    1
     3    14    11    1
     4    70    67    1
     5    53    42    1
     6    52    51    1
     7    41    39    1
     8    40    27    1
     9    65    63    1
    10    64    63    1
    11   107   106    1
    12   106   105    3
    13   105   100    1
    14   101    99    1
    15   100    99   ar
    16   100    97   ar
    17    99    96   ar
    18   102    97    1
    19    97    95   ar
    20    90    86    1
    21    90    93    1
    22    90    91    1
    23    96    87    1
    24    96    94   ar
    25    86    87   ar
    26    86    85   ar
    27    95    94   ar
    28    95    98    1
    29    87    88   ar
    30    94   103    1
    31    80    79    1
    32    85    89    1
    33    85    84   ar
    34    88    84   ar
    35    79    78    3
    36    84    75    1
    37    76    75   ar
    38    76    71   ar
    39    78    71    1
    40   103   104    1
    41    75    74   ar
    42    71    72   ar
    43    51    44    1
    44    62    61    1
    45    74    81    1
    46    74    73   ar
    47    72    73   ar
    48    72    60    1
    49    81    82    3
    50    44    49   ar
    51    44    45   ar
    52    49    48   ar
    53    61    60   ar
    54    61    57   ar
    55    73    77    1
    56    60    59   ar
    57    82    83    1
    58    17    16    1
    59    24    20    1
    60    15     7    1
    61     7     6   ar
    62     7     4   ar
    63    38    36    1
    64    19     4    1
    65    19    18   ar
    66    19    20   ar
    67    22    23   ar
    68    22    33    1
    69    22    21   ar
    70    27    30    1
    71     6     8    1
    72     6     3   ar
    73     4     2   ar
    74    18    25    1
    75    18    23   ar
    76    20    21   ar
    77    25    26    1
    78    33    36   ar
    79    33    31   ar
    80    36    37   ar
    81    39    31    1
    82    39    28    1
    83     1     2   ar
    84     1     3   ar
    85     1    10    1
    86     2     5    1
    87     3     9    1
    88    31    32   ar
    89    10    11    1
    90    11    12    1
    91    11    13    1
    92    37    34   ar
    93    42    43    1
    94    32    34   ar
    95    32    35    1
    96    34    45    1
    97    45    46   ar
    98    57    48    1
    99    57    58   ar
   100    48    47   ar
   101    59    58   ar
   102    59    66    1
   103    58    63    1
   104    66    67    1
   105    46    47   ar
   106    46    50    1
   107    47    54    1
   108    67    68    1
   109    67    69    1
   110    54    55    3
   111    55    56    1
