@<TRIPOS>MOLECULE
mol_data/noopt/geoms/mol2/4le6le-13di-13al-.out
 57 62 0 0 0
SMALL
GASTEIGER

@<TRIPOS>ATOM
      1 C           0.0509    0.0309    0.0002 C.ar    1  LIG1        0.1207
      2 C           1.4592    0.0309    0.0002 C.ar    1  LIG1       -0.0121
      3 C          -0.6045    1.2792    0.0002 C.ar    1  LIG1       -0.0196
      4 C           2.1849    1.2200   -0.0004 C.ar    1  LIG1       -0.0097
      5 H           1.9850   -0.9213    0.0004 H       1  LIG1        0.0660
      6 C           0.1195    2.4666   -0.0004 C.ar    1  LIG1       -0.0539
      7 C           1.5181    2.4458   -0.0008 C.ar    1  LIG1       -0.0290
      8 H          -0.4090    3.4165   -0.0003 H       1  LIG1        0.0622
      9 H          -1.9035    1.3287    0.0016 H       1  LIG1        0.0654
     10 O          -0.5709   -1.1108    0.0005 O.3     1  LIG1       -0.4951
     11 C          -1.9830   -0.8853    0.0005 C.3     1  LIG1        0.0788
     12 H          -2.4943   -1.8252    0.0006 H       1  LIG1        0.0660
     13 H          -2.2556   -0.3309    0.8742 H       1  LIG1        0.0660
     14 H          -2.2557   -0.3310   -0.8731 H       1  LIG1        0.0660
     15 C           2.1896    3.5590   -0.0012 C.3     1  LIG1        0.0481
     16 C           2.8100    4.5875   -0.0016 C.3     1  LIG1        0.0707
     17 H           3.3627    5.5037   -0.0019 H       1  LIG1        0.0604
     18 C           4.2297    2.3762   -0.0216 C.3     1  LIG1        0.2425
     19 C           3.4844    1.1831   -0.0005 C.2     1  LIG1        0.0202
     20 C           4.1715   -0.0320    0.0205 C.2     1  LIG1       -0.0362
     21 C           5.5674   -0.0147    0.0195 C.2     1  LIG1        0.0458
     22 C           6.2235    1.2297   -0.0026 C.2     1  LIG1        0.1006
     23 N           5.5764    2.4113   -0.0228 N.2     1  LIG1       -0.2373
     24 H           3.6233   -0.9846    0.0362 H       1  LIG1        0.0635
     25 O           3.6351    3.5321   -0.0414 O.3     1  LIG1       -0.3405
     26 C           4.6156    4.5731   -0.0488 C.3     1  LIG1       -0.0377
     27 H           4.1258    5.5243   -0.0653 H       1  LIG1        0.0255
     28 H           5.2211    4.4989    0.8303 H       1  LIG1        0.0255
     29 H           5.2335    4.4750   -0.9168 H       1  LIG1        0.0255
     30 C           6.2531   -1.1189    0.0383 C.1     1  LIG1       -0.0931
     31 C           6.8868   -2.1392    0.0557 C.2     1  LIG1        0.0551
     32 H           7.4513   -3.0481    0.0712 H       1  LIG1        0.0888
     33 C           7.5217    1.2976   -0.0044 C.ar    1  LIG1        0.0721
     34 C           8.4565    0.3107    0.0107 C.ar    1  LIG1        0.0130
     35 C           9.7428    0.9399    0.0013 C.ar    1  LIG1       -0.0177
     36 C           9.5376    2.2836   -0.0209 C.ar    1  LIG1        0.0667
     37 N           8.1791    2.5069   -0.0240 N.ar    1  LIG1       -0.3513
     38 H           7.7424    3.3997   -0.0387 H       1  LIG1        0.1660
     39 N           8.0152   -2.0954    0.0498 N.pl3   1  LIG1       -0.2335
     40 C           8.2220   -0.9678    0.0315 C.3     1  LIG1        0.1397
     41 C          10.8965    0.3401    0.0115 C.3     1  LIG1       -0.0373
     42 H          11.6125    0.9526    0.5187 H       1  LIG1        0.0278
     43 H          11.2201    0.1720   -0.9945 H       1  LIG1        0.0278
     44 H          10.8064   -0.5977    0.5186 H       1  LIG1        0.0278
     45 C          10.3880    3.2667   -0.0366 C.ar    1  LIG1        0.0667
     46 C          11.7473    3.2569   -0.0477 C.ar    1  LIG1        0.0068
     47 C          12.1848    4.6203   -0.0623 C.ar    1  LIG1        0.1379
     48 C          11.0735    5.4034   -0.0613 C.ar    1  LIG1        0.0444
     49 N           9.9713    4.5787   -0.0452 N.ar    1  LIG1       -0.3564
     50 H           9.0248    4.8824   -0.0410 H       1  LIG1        0.1655
     51 H          10.9537    6.6978   -0.0716 H       1  LIG1        0.0844
     52 H          12.5069    2.2019   -0.0439 H       1  LIG1        0.0676
     53 O          13.4163    5.0365   -0.0747 O.3     1  LIG1       -0.4936
     54 C          14.3000    3.9123   -0.0793 C.3     1  LIG1        0.0789
     55 H          15.3135    4.2552   -0.0897 H       1  LIG1        0.0660
     56 H          14.1319    3.3228    0.7978 H       1  LIG1        0.0660
     57 H          14.1159    3.3174   -0.9494 H       1  LIG1        0.0660
@<TRIPOS>BOND
     1    43    41    1
     2    57    54    1
     3    29    26    1
     4    14    11    1
     5    55    54    1
     6    54    53    1
     7    54    56    1
     8    53    47    1
     9    51    48    1
    10    27    26    1
    11    47    48   ar
    12    47    46   ar
    13    48    49   ar
    14    26    16    1
    15    26    28    1
    16    46    52    1
    17    46    45   ar
    18    49    50    1
    19    49    45   ar
    20    25    18    1
    21    25    16    1
    22    38    37    1
    23    45    36    1
    24    37    36   ar
    25    37    33   ar
    26    23    18    1
    27    23    22    2
    28    18    19    1
    29    36    35   ar
    30    33    22    1
    31    33    34   ar
    32    22    21    1
    33    17    16    1
    34    16    15    1
    35    15     7    1
    36     7     6   ar
    37     7     4   ar
    38    19     4    1
    39    19    20    2
    40     6     8    1
    41     6     3   ar
    42     4     2   ar
    43     3     1   ar
    44     3     9    1
    45     2     1   ar
    46     2     5    1
    47     1    10    1
    48    10    11    1
    49    11    12    1
    50    11    13    1
    51    35    34   ar
    52    35    41    1
    53    34    40    1
    54    41    44    1
    55    41    42    1
    56    21    20    1
    57    21    30    2
    58    20    24    1
    59    40    39    1
    60    30    31    2
    61    39    31    1
    62    31    32    1
