@<TRIPOS>MOLECULE
mol_data/noopt/geoms/mol2/4lf.out
 17 17 0 0 0
SMALL
GASTEIGER

@<TRIPOS>ATOM
      1 C           0.0509    0.0309    0.0002 C.ar    1  LIG1        0.1203
      2 C           1.4592    0.0309    0.0002 C.ar    1  LIG1       -0.0165
      3 C          -0.6045    1.2792    0.0002 C.ar    1  LIG1       -0.0165
      4 C           2.1849    1.2200   -0.0004 C.ar    1  LIG1       -0.0167
      5 H           1.9850   -0.9213    0.0004 H       1  LIG1        0.0655
      6 C           0.1195    2.4666   -0.0004 C.ar    1  LIG1       -0.0167
      7 C           1.5181    2.4458   -0.0008 C.ar    1  LIG1        0.1171
      8 H          -0.4090    3.4165   -0.0003 H       1  LIG1        0.0655
      9 H           3.4844    1.1831   -0.0005 H       1  LIG1        0.0655
     10 H          -1.9035    1.3287    0.0016 H       1  LIG1        0.0655
     11 O          -0.5709   -1.1108    0.0005 O.3     1  LIG1       -0.4951
     12 C          -1.9830   -0.8853    0.0005 C.3     1  LIG1        0.0788
     13 H          -2.4943   -1.8252    0.0006 H       1  LIG1        0.0660
     14 H          -2.2556   -0.3309    0.8742 H       1  LIG1        0.0660
     15 H          -2.2557   -0.3310   -0.8731 H       1  LIG1        0.0660
     16 O           2.1896    3.5590   -0.0012 O.3     1  LIG1       -0.5068
     17 H           1.5802    4.3008   -0.0013 H       1  LIG1        0.2921
@<TRIPOS>BOND
     1    15    12    1
     2    17    16    1
     3    16     7    1
     4     7     6   ar
     5     7     4   ar
     6     9     4    1
     7     6     8    1
     8     6     3   ar
     9     4     2   ar
    10     1     3   ar
    11     1     2   ar
    12     1    11    1
    13     3    10    1
    14     2     5    1
    15    11    12    1
    16    12    13    1
    17    12    14    1
