@<TRIPOS>MOLECULE
mol_data/noopt/geoms/mol2/4lf13lf-13eh-12aa-4eh-12ah-4ie-4hf-.out
 100 104 0 0 0
SMALL
GASTEIGER

@<TRIPOS>ATOM
      1 C           0.0509    0.0309    0.0002 C.2     1  LIG1        0.1580
      2 C           1.4592    0.0309    0.0002 C.3     2  LIG2        0.0000
      3 C          -0.6045    1.2792    0.0002 C.2     1  LIG1       -0.0273
      4 C           2.1849    1.2200   -0.0004 C.2     1  LIG1        0.0524
      5 H           1.9850   -0.9213    0.0004 H       2  LIG2        0.0194
      6 C           0.1195    2.4666   -0.0004 C.3     1  LIG1        0.0520
      7 C           1.5181    2.4458   -0.0008 C.2     1  LIG1        0.1118
      8 H          -0.4090    3.4165   -0.0003 H       1  LIG1        0.0433
      9 H          -1.9035    1.3287    0.0016 H       1  LIG1        0.0617
     10 O          -0.5709   -1.1108    0.0005 O.2     1  LIG1       -0.4918
     11 C          -1.9830   -0.8853    0.0005 C.3     1  LIG1        0.0789
     12 H          -2.4943   -1.8252    0.0006 H       1  LIG1        0.0660
     13 H          -2.2556   -0.3309    0.8742 H       1  LIG1        0.0660
     14 H          -2.2557   -0.3310   -0.8731 H       1  LIG1        0.0660
     15 O           2.1896    3.5590   -0.0012 O.2     1  LIG1       -0.5097
     16 H           1.5802    4.3008   -0.0013 H       1  LIG1        0.2917
     17 C           3.4844    1.1831   -0.0005 C.ar    1  LIG1        0.1020
     18 C           4.3366    0.1241    0.0157 C.ar    1  LIG1        0.2459
     19 C           5.6695    0.6477    0.0079 C.ar    1  LIG1        0.1916
     20 C           5.5731    2.0035   -0.0145 C.ar    1  LIG1        0.1106
     21 N           4.2371    2.3356   -0.0192 N.ar    1  LIG1       -0.3469
     22 H           3.8736    3.2606   -0.0344 H       1  LIG1        0.1662
     23 O           3.9999   -1.1314    0.0361 O.3     1  LIG1       -0.2817
     24 C           2.5743   -1.2431    0.0435 C.3     3  LIG3       -0.0776
     25 H           2.2975   -2.2765    0.0602 H       2  LIG2        0.0194
     26 H           2.1827   -0.7550    0.9116 H       2  LIG2        0.0194
     27 H           2.1757   -0.7812   -0.8355 H       2  LIG2        0.0194
     28 O           6.7709   -0.0429    0.0195 O.3     1  LIG1       -0.5017
     29 H           7.5230    0.5536    0.0224 H       1  LIG1        0.2924
     30 C           6.5000    2.9149   -0.0291 C.ar    1  LIG1        0.0845
     31 C           7.8541    2.7957   -0.0393 C.ar    1  LIG1        0.0728
     32 C           8.3999    4.1195   -0.0528 C.ar    1  LIG1        0.0695
     33 C           7.3554    4.9895   -0.0519 C.ar    1  LIG1        0.1047
     34 N           6.1903    4.2563   -0.0370 N.ar    1  LIG1       -0.3481
     35 H           5.2714    4.6352   -0.0331 H       1  LIG1        0.1661
     36 C           8.5262    1.6829   -0.0359 C.1     1  LIG1       -0.0656
     37 C           9.1473    0.6547   -0.0327 C.1     1  LIG1       -0.1138
     38 H           9.7005   -0.2612   -0.0298 H       1  LIG1        0.1232
     39 N           9.6610    4.4351   -0.0642 N.pl3   1  LIG1       -0.3553
     40 H          10.1785    3.7230   -0.5385 H       1  LIG1        0.1424
     41 H           9.7821    5.3071   -0.5386 H       1  LIG1        0.1424
     42 C           7.3402    6.2894   -0.0615 C.ar    1  LIG1        0.1536
     43 C           8.2960    7.2840   -0.0539 C.ar    1  LIG1       -0.0137
     44 C           7.5832    8.5444   -0.0739 C.ar    1  LIG1       -0.0152
     45 C           6.2385    8.2361   -0.0925 C.ar    1  LIG1        0.1370
     46 O           6.0632    6.8519   -0.0853 O.2     1  LIG1       -0.4533
     47 H           9.5884    7.1455   -0.0329 H       1  LIG1        0.0656
     48 H           8.1297    9.7240   -0.0740 H       1  LIG1        0.0656
     49 C           5.1753   10.3274   -0.1041 C.ar    1  LIG1        0.0361
     50 C           3.9494   11.0202   -0.1272 C.ar    1  LIG1       -0.0332
     51 C           5.1321    8.9182   -0.1144 C.ar    1  LIG1        0.0344
     52 C           2.7331   10.3419   -0.1598 C.ar    1  LIG1        0.0391
     53 H           3.9599   12.1078   -0.1196 H       1  LIG1        0.0638
     54 C           3.9181    8.2406   -0.1468 C.ar    1  LIG1       -0.0285
     55 C           2.7109    8.9467   -0.1699 C.ar    1  LIG1        0.0361
     56 H           3.9111    7.1536   -0.1541 H       1  LIG1        0.0643
     57 C           6.2779   11.0155   -0.0744 C.1     1  LIG1       -0.0689
     58 C           7.2966   11.6514   -0.0469 C.1     1  LIG1       -0.1139
     59 H           8.2041   12.2177   -0.0224 H       1  LIG1        0.1232
     60 N           1.5790    8.3078   -0.2000 N.pl3   1  LIG1       -0.3574
     61 H           0.8970    8.8605   -0.6791 H       1  LIG1        0.1423
     62 H           1.6997    7.4384   -0.6791 H       1  LIG1        0.1423
     63 C           1.6201   11.0132   -0.1806 C.ar    1  LIG1        0.1393
     64 C           1.2778   12.3495   -0.1964 C.ar    1  LIG1        0.0056
     65 C          -0.1690   12.4069   -0.2167 C.ar    1  LIG1        0.0716
     66 C          -0.6150   11.1013   -0.2121 C.ar    1  LIG1        0.1565
     67 O           0.4694   10.2236   -0.1901 O.2     1  LIG1       -0.4529
     68 H           2.0762   13.3754   -0.1938 H       1  LIG1        0.0674
     69 N          -0.8840   13.4925   -0.2355 N.pl3   1  LIG1       -0.3550
     70 H          -0.3817   14.2142   -0.7116 H       1  LIG1        0.1424
     71 H          -1.7454   13.3161   -0.7117 H       1  LIG1        0.1424
     72 C          -2.9528   11.2982   -0.2071 C.ar    1  LIG1       -0.0391
     73 C          -4.1873   10.6206   -0.2186 C.ar    1  LIG1       -0.0492
     74 C          -1.7775   10.5196   -0.2232 C.ar    1  LIG1        0.0232
     75 C          -4.2511    9.2292   -0.2455 C.ar    1  LIG1       -0.0004
     76 H          -5.1064   11.2021   -0.2064 H       1  LIG1        0.0627
     77 C          -1.8407    9.1306   -0.2501 C.ar    1  LIG1       -0.0348
     78 C          -3.0767    8.4758   -0.2615 C.ar    1  LIG1        0.0331
     79 H          -0.9203    8.5524   -0.2620 H       1  LIG1        0.0637
     80 C          -2.9573   12.5983   -0.1822 C.3     1  LIG1       -0.0390
     81 H          -3.8321   12.9423    0.3290 H       1  LIG1        0.0278
     82 H          -2.9586   12.9743   -1.1840 H       1  LIG1        0.0278
     83 H          -2.0848   12.9482    0.3289 H       1  LIG1        0.0278
     84 C          -3.1296    7.1771   -0.2865 C.1     1  LIG1       -0.0690
     85 C          -3.1784    5.9771   -0.3096 C.1     1  LIG1       -0.1139
     86 H          -3.2219    4.9082   -0.3301 H       1  LIG1        0.1232
     87 C          -6.5907    9.4035   -0.2389 C.ar    1  LIG1        0.0326
     88 C          -7.8185    8.7138   -0.2492 C.ar    1  LIG1       -0.0370
     89 C          -5.4079    8.6363   -0.2556 C.ar    1  LIG1        0.0074
     90 C          -7.8689    7.3220   -0.2756 C.ar    1  LIG1       -0.0184
     91 H          -8.7433    9.2864   -0.2365 H       1  LIG1        0.0637
     92 C          -5.4576    7.2467   -0.2819 C.ar    1  LIG1       -0.0107
     93 C          -6.6872    6.5800   -0.2922 C.ar    1  LIG1        0.1176
     94 H          -4.5316    6.6775   -0.2942 H       1  LIG1        0.0661
     95 H          -9.0200    6.7178   -0.2845 H       1  LIG1        0.0655
     96 N          -6.6078   10.7032   -0.2145 N.pl3   1  LIG1       -0.3575
     97 H          -5.7958   11.0560   -0.6795 H       1  LIG1        0.1423
     98 H          -7.4286   11.0346   -0.6795 H       1  LIG1        0.1423
     99 O          -6.7275    5.2808   -0.3166 O.3     1  LIG1       -0.5067
    100 H          -5.8329    4.9325   -0.3226 H       1  LIG1        0.2921
@<TRIPOS>BOND
     1    82    80    1
     2    14    11    1
     3    27    24    1
     4    71    69    1
     5    70    69    1
     6    98    96    1
     7    97    96    1
     8    62    60    1
     9    61    60    1
    10    41    39    1
    11    40    39    1
    12    86    85    1
    13   100    99    1
    14    99    93    1
    15    85    84    3
    16    94    92    1
    17    93    92   ar
    18    93    90   ar
    19    84    78    1
    20    95    90    1
    21    92    89   ar
    22    90    88   ar
    23    79    77    1
    24    78    77   ar
    25    78    75   ar
    26    89    75    1
    27    89    87   ar
    28    77    74   ar
    29    88    87   ar
    30    88    91    1
    31    75    73   ar
    32    87    96    1
    33    69    65    1
    34    74    66    1
    35    74    72   ar
    36    73    72   ar
    37    73    76    1
    38    65    66   ar
    39    65    64   ar
    40    66    67   ar
    41    72    80    1
    42    60    55    1
    43    64    68    1
    44    64    63   ar
    45    67    63   ar
    46    80    83    1
    47    80    81    1
    48    63    52    1
    49    55    52   ar
    50    55    54   ar
    51    52    50   ar
    52    56    54    1
    53    54    51   ar
    54    50    53    1
    55    50    49   ar
    56    51    49   ar
    57    51    45    1
    58    49    57    1
    59    45    46   ar
    60    45    44   ar
    61    46    42   ar
    62    57    58    3
    63    48    44    1
    64    44    43   ar
    65    39    32    1
    66    42    43   ar
    67    42    33    1
    68    43    47    1
    69    32    33   ar
    70    32    31   ar
    71    33    34   ar
    72    58    59    1
    73    31    36    1
    74    31    30   ar
    75    34    35    1
    76    34    30   ar
    77    36    37    3
    78    22    21    1
    79    37    38    1
    80    30    20    1
    81    21    20   ar
    82    21    17   ar
    83    20    19   ar
    84    16    15    1
    85    15     7    1
    86     7     6    1
    87     7     4    2
    88    17     4    1
    89    17    18   ar
    90     6     8    1
    91     6     3    1
    92     3     1    2
    93     3     9    1
    94     1    10    1
    95     5    24    1
    96    10    11    1
    97    11    12    1
    98    11    13    1
    99    19    18   ar
   100    19    28    1
   101    18    23    1
   102    28    29    1
   103    24    25    1
   104    24    26    1
