@<TRIPOS>MOLECULE
mol_data/noopt/geoms/mol2/4lf12ef(140)12il(240)4af(330).out
 52 55 0 0 0
SMALL
GASTEIGER

@<TRIPOS>ATOM
      1 C           0.0509    0.0309    0.0002 C.ar    1  LIG1        0.1210
      2 C           1.4592    0.0309    0.0002 C.ar    1  LIG1       -0.0057
      3 C          -0.6045    1.2792    0.0002 C.ar    1  LIG1       -0.0165
      4 C           2.1849    1.2200   -0.0004 C.ar    1  LIG1        0.0634
      5 H           1.9850   -0.9213    0.0004 H       1  LIG1        0.0662
      6 C           0.1195    2.4666   -0.0004 C.ar    1  LIG1       -0.0160
      7 C           1.5181    2.4458   -0.0008 C.ar    1  LIG1        0.1278
      8 H          -0.4090    3.4165   -0.0003 H       1  LIG1        0.0655
      9 H          -1.9035    1.3287    0.0016 H       1  LIG1        0.0655
     10 O          -0.5709   -1.1108    0.0005 O.3     1  LIG1       -0.4951
     11 C          -1.9830   -0.8853    0.0005 C.3     1  LIG1        0.0788
     12 H          -2.4943   -1.8252    0.0006 H       1  LIG1        0.0660
     13 H          -2.2556   -0.3309    0.8742 H       1  LIG1        0.0660
     14 H          -2.2557   -0.3310   -0.8731 H       1  LIG1        0.0660
     15 O           2.1896    3.5590   -0.0012 O.3     1  LIG1       -0.5061
     16 H           1.5802    4.3008   -0.0013 H       1  LIG1        0.2922
     17 C           3.4844    1.1831   -0.0005 C.ar    1  LIG1        0.1585
     18 C           4.4895    1.9344    0.5724 C.ar    1  LIG1        0.1126
     19 C           5.7417    1.3361    0.1589 C.ar    1  LIG1        0.1822
     20 C           5.4185    0.2584   -0.6396 C.ar    1  LIG1        0.2133
     21 O           4.0326    0.1433   -0.7528 O.2     1  LIG1       -0.4465
     22 C           4.3654    2.9785    1.3369 C.1     1  LIG1       -0.0622
     23 C           4.2506    3.9433    2.0433 C.1     1  LIG1       -0.1137
     24 H           4.1485    4.8026    2.6725 H       1  LIG1        0.1232
     25 O           6.9272    1.7541    0.4906 O.3     1  LIG1       -0.5023
     26 H           6.9184    2.7106    0.5724 H       1  LIG1        0.2923
     27 C           6.0881   -0.6461   -1.2903 C.ar    1  LIG1        0.1808
     28 C           6.7820   -0.6886   -2.4819 C.ar    1  LIG1        0.0408
     29 C           7.3004   -2.0344   -2.6123 C.ar    1  LIG1        0.1692
     30 C           6.8888   -2.7253   -1.4912 C.ar    1  LIG1        0.1776
     31 O           6.1398   -1.8907   -0.6610 O.2     1  LIG1       -0.4475
     32 C           6.9527    0.2749   -3.3382 C.3     1  LIG1       -0.0325
     33 H           6.1972    1.0187   -3.1935 H       1  LIG1        0.0280
     34 H           6.8836   -0.1150   -4.3323 H       1  LIG1        0.0280
     35 H           7.9177    0.7138   -3.1936 H       1  LIG1        0.0280
     36 O           8.0132   -2.4790   -3.6044 O.3     1  LIG1       -0.4910
     37 C           7.5615   -3.7859   -3.9687 C.3     1  LIG1        0.0790
     38 H           8.1483   -4.1514   -4.7855 H       1  LIG1        0.0660
     39 H           7.6649   -4.4451   -3.1322 H       1  LIG1        0.0660
     40 H           6.5333   -3.7393   -4.2611 H       1  LIG1        0.0660
     41 C           6.0862   -4.9269   -1.3775 C.ar    1  LIG1       -0.0507
     42 C           6.2878   -6.2243   -0.8681 C.ar    1  LIG1       -0.0576
     43 C           7.0342   -3.9377   -1.0451 C.ar    1  LIG1        0.0244
     44 C           7.3844   -6.5258   -0.0637 C.ar    1  LIG1       -0.0201
     45 H           5.5682   -7.0026   -1.1121 H       1  LIG1        0.0619
     46 C           8.1291   -4.2381   -0.2420 C.ar    1  LIG1       -0.0094
     47 C           8.3122   -5.5331    0.2540 C.ar    1  LIG1        0.1175
     48 H           8.8462   -3.4579    0.0002 H       1  LIG1        0.0661
     49 H           7.5397   -7.7344    0.3894 H       1  LIG1        0.0654
     50 H           5.0442   -4.7066   -2.1229 H       1  LIG1        0.0625
     51 O           9.3376   -5.8081    1.0044 O.3     1  LIG1       -0.5067
     52 H           9.8247   -5.0018    1.1893 H       1  LIG1        0.2921
@<TRIPOS>BOND
     1    38    37    1
     2    34    32    1
     3    40    37    1
     4    37    36    1
     5    37    39    1
     6    36    29    1
     7    32    35    1
     8    32    33    1
     9    32    28    1
    10    29    28   ar
    11    29    30   ar
    12    28    27   ar
    13    50    41    1
    14    30    43    1
    15    30    31   ar
    16    41    43   ar
    17    41    42   ar
    18    27    31   ar
    19    27    20    1
    20    45    42    1
    21    43    46   ar
    22    14    11    1
    23    42    44   ar
    24    21    20   ar
    25    21    17   ar
    26    20    19   ar
    27    46    48    1
    28    46    47   ar
    29    44    47   ar
    30    44    49    1
    31    16    15    1
    32    15     7    1
    33     7     6   ar
    34     7     4   ar
    35    17     4    1
    36    17    18   ar
    37     6     8    1
    38     6     3   ar
    39     4     2   ar
    40     1     2   ar
    41     1     3   ar
    42     1    10    1
    43     2     5    1
    44     3     9    1
    45    10    11    1
    46    11    12    1
    47    11    13    1
    48    19    25    1
    49    19    18   ar
    50    47    51    1
    51    25    26    1
    52    18    22    1
    53    51    52    1
    54    22    23    3
    55    23    24    1
