@<TRIPOS>MOLECULE
mol_data/noopt/geoms/mol2/4lf13ea13hf13hl-4fd13fl-13ld-4hd.out
 103 108 0 0 0
SMALL
GASTEIGER

@<TRIPOS>ATOM
      1 C           0.0509    0.0309    0.0002 C.ar    1  LIG1        0.1209
      2 C           1.4592    0.0309    0.0002 C.ar    1  LIG1       -0.0073
      3 C          -0.6045    1.2792    0.0002 C.ar    1  LIG1       -0.0165
      4 C           2.1849    1.2200   -0.0004 C.ar    1  LIG1        0.0443
      5 H           1.9850   -0.9213    0.0004 H       1  LIG1        0.0662
      6 C           0.1195    2.4666   -0.0004 C.ar    1  LIG1       -0.0161
      7 C           1.5181    2.4458   -0.0008 C.ar    1  LIG1        0.1262
      8 H          -0.4090    3.4165   -0.0003 H       1  LIG1        0.0655
      9 H          -1.9035    1.3287    0.0016 H       1  LIG1        0.0655
     10 O          -0.5709   -1.1108    0.0005 O.3     1  LIG1       -0.4951
     11 C          -1.9830   -0.8853    0.0005 C.3     1  LIG1        0.0788
     12 H          -2.4943   -1.8252    0.0006 H       1  LIG1        0.0660
     13 H          -2.2556   -0.3309    0.8742 H       1  LIG1        0.0660
     14 H          -2.2557   -0.3310   -0.8731 H       1  LIG1        0.0660
     15 O           2.1896    3.5590   -0.0012 O.3     1  LIG1       -0.5061
     16 H           1.5802    4.3008   -0.0013 H       1  LIG1        0.2922
     17 C           3.4844    1.1831   -0.0005 C.ar    1  LIG1        0.0662
     18 C           4.3366    0.1240   -0.0009 C.ar    1  LIG1        0.0506
     19 C           5.6695    0.6476    0.0003 C.ar    1  LIG1       -0.0189
     20 C           5.5731    2.0036   -0.0004 C.ar    1  LIG1        0.0665
     21 N           4.2371    2.3357   -0.0004 N.ar    1  LIG1       -0.3519
     22 H           3.8737    3.2609   -0.0009 H       1  LIG1        0.1660
     23 C           3.9999   -1.1316   -0.0008 C.1     1  LIG1       -0.0675
     24 C           3.6887   -2.2918   -0.0007 C.1     1  LIG1       -0.1138
     25 H           3.4115   -3.3253   -0.0006 H       1  LIG1        0.1232
     26 H           6.7708   -0.0431    0.0013 H       1  LIG1        0.0652
     27 C           6.5000    2.9152    0.0001 C.ar    1  LIG1        0.0880
     28 C           7.8541    2.7961    0.0167 C.ar    1  LIG1        0.0944
     29 C           8.3999    4.1200    0.0095 C.ar    1  LIG1        0.1650
     30 C           7.3554    4.9898   -0.0130 C.ar    1  LIG1        0.1092
     31 N           6.1904    4.2564   -0.0183 N.ar    1  LIG1       -0.3474
     32 H           5.2715    4.6352   -0.0337 H       1  LIG1        0.1662
     33 N           8.5261    1.6835    0.0370 N.pl3   1  LIG1       -0.3534
     34 H           8.0033    0.9697   -0.4292 H       1  LIG1        0.1425
     35 H           9.4011    1.8140   -0.4292 H       1  LIG1        0.1425
     36 O           9.6610    4.4358    0.0216 O.3     1  LIG1       -0.5030
     37 H           9.7519    5.3915    0.0246 H       1  LIG1        0.2923
     38 C           7.3403    6.2896   -0.0271 C.ar    1  LIG1        0.0916
     39 C           8.3643    7.1837   -0.0205 C.ar    1  LIG1        0.0947
     40 C           7.7879    8.4944   -0.0426 C.ar    1  LIG1        0.1666
     41 C           6.4370    8.3436   -0.0635 C.ar    1  LIG1        0.0946
     42 N           6.1586    6.9954   -0.0536 N.ar    1  LIG1       -0.3484
     43 H           5.2489    6.5951   -0.0646 H       1  LIG1        0.1661
     44 N           9.6322    6.8977    0.0032 N.pl3   1  LIG1       -0.3534
     45 H           9.7860    6.0260   -0.4621 H       1  LIG1        0.1425
     46 H          10.1454    7.6189   -0.4621 H       1  LIG1        0.1425
     47 O           8.4338    9.6226   -0.0431 O.3     1  LIG1       -0.4911
     48 C           9.8408    9.3669   -0.0433 C.3     1  LIG1        0.0790
     49 H          10.3721   10.2957   -0.0439 H       1  LIG1        0.0660
     50 H          10.1018    8.8073    0.8306 H       1  LIG1        0.0660
     51 H          10.1014    8.8065   -0.9167 H       1  LIG1        0.0660
     52 C           5.8136   10.6050   -0.1002 C.ar    1  LIG1        0.1268
     53 C           4.7509   11.5288   -0.1250 C.ar    1  LIG1       -0.0091
     54 C           5.4892    9.2330   -0.0878 C.ar    1  LIG1        0.0446
     55 C           3.4232   11.1074   -0.1376 C.ar    1  LIG1        0.0227
     56 H           4.9788   12.5923   -0.1347 H       1  LIG1        0.0661
     57 C           4.1639    8.8118   -0.1004 C.ar    1  LIG1       -0.0310
     58 C           3.1222    9.7449   -0.1254 C.ar    1  LIG1        0.0618
     59 H           3.9395    7.7482   -0.0903 H       1  LIG1        0.0638
     60 O           7.0318   11.0588   -0.0897 O.3     1  LIG1       -0.5061
     61 H           7.0162   12.0187   -0.0871 H       1  LIG1        0.2922
     62 N           0.7942    8.9927   -0.1470 N.1     1  LIG1       -0.1908
     63 C           1.8852    9.3452   -0.1369 C.1     1  LIG1        0.0998
     64 C           2.4668   11.9876   -0.1606 C.ar    1  LIG1        0.0909
     65 C           2.5185   13.3459   -0.1766 C.ar    1  LIG1        0.1506
     66 C           1.1693   13.8251   -0.1986 C.ar    1  LIG1        0.0566
     67 C           0.3524   12.7384   -0.1969 C.ar    1  LIG1        0.0788
     68 N           1.1426   11.6114   -0.1732 N.ar    1  LIG1       -0.3495
     69 H           0.8099   10.6748   -0.1668 H       1  LIG1        0.1661
     70 O           3.5964   14.0727   -0.1712 O.3     1  LIG1       -0.5040
     71 H           3.3562   15.0021   -0.1699 H       1  LIG1        0.2923
     72 O           0.7913   15.0688   -0.2173 O.3     1  LIG1       -0.2383
     73 C           1.9422   15.9174   -0.2243 C.3     2  LIG2       -0.0681
     74 H           1.6307   16.9409   -0.2399 H       2  LIG2        0.0227
     75 H           2.5250   15.7353    0.6545 H       2  LIG2        0.0227
     76 H           2.5324   15.7109   -1.0926 H       2  LIG2        0.0227
     77 C          -0.9451   12.6585   -0.2123 C.ar    1  LIG1        0.1126
     78 C          -1.8891   13.6366   -0.2065 C.ar    1  LIG1        0.2234
     79 C          -3.1694   12.9955   -0.2298 C.ar    1  LIG1        0.1242
     80 C          -2.9514   11.6538   -0.2506 C.ar    1  LIG1        0.0702
     81 N          -1.5910   11.4431   -0.2395 N.ar    1  LIG1       -0.3488
     82 H          -1.1458   10.5544   -0.2501 H       1  LIG1        0.1661
     83 O          -1.6668   14.9173   -0.1825 O.3     1  LIG1       -0.2842
     84 C          -0.2570   15.1568   -0.1738 C.3     1  LIG1        0.0718
     85 H          -0.0744   16.2109   -0.1543 H       1  LIG1        0.0555
     86 H           0.1765   14.7036    0.6932 H       1  LIG1        0.0555
     87 H           0.1819   14.7351   -1.0538 H       1  LIG1        0.0555
     88 N          -5.3506   14.1037   -0.2328 N.1     1  LIG1       -0.1907
     89 C          -4.3284   13.5843   -0.2314 C.1     1  LIG1        0.1052
     90 C          -5.1789   10.9184   -0.2886 C.ar    1  LIG1        0.0339
     91 C          -6.0484    9.8109   -0.3144 C.ar    1  LIG1       -0.0392
     92 C          -3.7924   10.6629   -0.2758 C.ar    1  LIG1        0.0215
     93 C          -5.5613    8.5059   -0.3274 C.ar    1  LIG1       -0.0426
     94 H          -7.1220    9.9855   -0.3244 H       1  LIG1        0.0636
     95 C          -3.3055    9.3602   -0.2888 C.ar    1  LIG1       -0.0334
     96 C          -4.1854    8.2732   -0.3148 C.ar    1  LIG1        0.0525
     97 H          -2.2321    9.1892   -0.2784 H       1  LIG1        0.0637
     98 H          -6.3927    7.5068   -0.3513 H       1  LIG1        0.0631
     99 N          -5.6929   12.1124   -0.2777 N.pl3   1  LIG1       -0.3575
    100 H          -5.0763   12.7450   -0.7464 H       1  LIG1        0.1423
    101 H          -6.5762   12.0993   -0.7464 H       1  LIG1        0.1423
    102 N          -3.3180    5.9857   -0.3371 N.1     1  LIG1       -0.1909
    103 C          -3.7245    7.0577   -0.3267 C.1     1  LIG1        0.0992
@<TRIPOS>BOND
     1    76    73    1
     2    87    84    1
     3    51    48    1
     4    14    11    1
     5   101    99    1
     6   100    99    1
     7    46    44    1
     8    45    44    1
     9    35    33    1
    10    34    33    1
    11    98    93    1
    12   102   103    3
    13    93    96   ar
    14    93    91   ar
    15   103    96    1
    16    94    91    1
    17    96    95   ar
    18    91    90   ar
    19    95    97    1
    20    95    92   ar
    21    90    99    1
    22    90    92   ar
    23    92    80    1
    24    80    81   ar
    25    80    79   ar
    26    82    81    1
    27    74    73    1
    28    81    77   ar
    29    88    89    3
    30    89    79    1
    31    79    78   ar
    32    73    75    1
    33    72    84    1
    34    77    78   ar
    35    77    67    1
    36    78    83    1
    37    66    67   ar
    38    66    65   ar
    39    67    68   ar
    40    65    70    1
    41    65    64   ar
    42    84    85    1
    43    84    86    1
    44    68    69    1
    45    68    64   ar
    46    70    71    1
    47    64    55    1
    48    62    63    3
    49    55    58   ar
    50    55    53   ar
    51    63    58    1
    52    56    53    1
    53    58    57   ar
    54    53    52   ar
    55    57    59    1
    56    57    54   ar
    57    52    60    1
    58    52    54   ar
    59    60    61    1
    60    54    41    1
    61    43    42    1
    62    41    42   ar
    63    41    40   ar
    64    42    38   ar
    65    49    48    1
    66    48    47    1
    67    48    50    1
    68    47    40    1
    69    40    39   ar
    70    32    31    1
    71    38    39   ar
    72    38    30    1
    73    39    44    1
    74    31    30   ar
    75    31    27   ar
    76    30    29   ar
    77    16    15    1
    78    15     7    1
    79    18    23    1
    80    18    17   ar
    81    18    19   ar
    82    22    21    1
    83    23    24    3
    84     7     6   ar
    85     7     4   ar
    86    24    25    1
    87    17     4    1
    88    17    21   ar
    89     6     8    1
    90     6     3   ar
    91     4     2   ar
    92    21    20   ar
    93    20    27    1
    94    20    19   ar
    95    27    28   ar
    96     2     1   ar
    97     2     5    1
    98     3     1   ar
    99     3     9    1
   100     1    10    1
   101    19    26    1
   102    10    11    1
   103    11    12    1
   104    11    13    1
   105    29    28   ar
   106    29    36    1
   107    28    33    1
   108    36    37    1
