@<TRIPOS>MOLECULE
mol_data/noopt/geoms/mol2/4lf4lf-4lf.out
 47 45 0 0 0
SMALL
GASTEIGER

@<TRIPOS>ATOM
      1 C           0.0509    0.0309    0.0002 C.ar    1  LIG1        0.1209
      2 C           1.4592    0.0309    0.0002 C.ar    1  LIG1       -0.0090
      3 C          -0.6045    1.2792    0.0002 C.ar    1  LIG1       -0.0165
      4 C           2.1849    1.2200   -0.0004 C.ar    1  LIG1        0.0262
      5 H           1.9850   -0.9213    0.0004 H       1  LIG1        0.0661
      6 C           0.1195    2.4666   -0.0004 C.ar    1  LIG1       -0.0161
      7 C           1.5181    2.4458   -0.0008 C.ar    1  LIG1        0.1246
      8 H          -0.4090    3.4165   -0.0003 H       1  LIG1        0.0655
      9 H          -1.9035    1.3287    0.0016 H       1  LIG1        0.0655
     10 O          -0.5709   -1.1108    0.0005 O.3     1  LIG1       -0.4951
     11 C          -1.9830   -0.8853    0.0005 C.3     1  LIG1        0.0788
     12 H          -2.4943   -1.8252    0.0006 H       1  LIG1        0.0660
     13 H          -2.2556   -0.3309    0.8742 H       1  LIG1        0.0660
     14 H          -2.2557   -0.3310   -0.8731 H       1  LIG1        0.0660
     15 O           2.1896    3.5590   -0.0012 O.3     1  LIG1       -0.5062
     16 H           1.5802    4.3008   -0.0013 H       1  LIG1        0.2922
     17 C           4.2212    2.3851    0.0002 C.3     1  LIG1        0.1501
     18 C           5.6264    2.2916    0.0016 C.2     1  LIG1       -0.0363
     19 C           3.4843    1.1831   -0.0005 C.2     1  LIG1        0.0022
     20 C           6.2715    1.0569    0.0017 C.2     1  LIG1       -0.0073
     21 H           6.2143    3.2067    0.0024 H       1  LIG1        0.0611
     22 C           4.1278   -0.0498   -0.0004 C.2     1  LIG1       -0.0544
     23 C           5.5247   -0.1219    0.0006 C.3     2  LIG2        0.0000
     24 H           3.5374   -0.9625   -0.0009 H       1  LIG1        0.0622
     25 O           3.6766    3.5656   -0.0001 O.3     1  LIG1       -0.3643
     26 C           4.7008    4.5636   -0.0003 C.3     1  LIG1        0.0382
     27 H           4.2522    5.5351   -0.0007 H       1  LIG1        0.0524
     28 H           5.3081    4.4516    0.8736 H       1  LIG1        0.0524
     29 H           5.3084    4.4510   -0.8737 H       1  LIG1        0.0524
     30 O           6.1208   -1.2773    0.0008 O.3     3  HOH3       -0.2528
     31 H           7.0719   -1.1471    0.0009 H       2  LIG2        0.0227
     32 C           8.2259   -0.2409    0.0043 C.ar    1  LIG1        0.1869
     33 C           9.6342   -0.2409    0.0071 C.ar    1  LIG1       -0.0109
     34 C           7.5705    1.0074    0.0029 C.ar    1  LIG1        0.0326
     35 C          10.3599    0.9482    0.0079 C.ar    1  LIG1       -0.0165
     36 H          10.1600   -1.1931    0.0084 H       1  LIG1        0.0657
     37 C           8.2945    2.1948    0.0036 C.ar    1  LIG1       -0.0088
     38 C           9.6931    2.1740    0.0060 C.ar    1  LIG1        0.1177
     39 H           7.7660    3.1447    0.0026 H       1  LIG1        0.0661
     40 H          11.6594    0.9113    0.0104 H       1  LIG1        0.0655
     41 O           7.6041   -1.3826    0.0034 O.3     1  LIG1       -0.2873
     42 C           6.1920   -1.1571    0.0031 C.3     4  LIG4       -0.0681
     43 H           5.6807   -2.0970    0.0022 H       0  HOH0        0.2528
     44 H           5.9190   -0.6034    0.8770 H       2  LIG2        0.0227
     45 H           5.9197   -0.6021   -0.8703 H       2  LIG2        0.0227
     46 O          10.3646    3.2872    0.0069 O.3     1  LIG1       -0.5067
     47 H           9.7552    4.0290    0.0071 H       1  LIG1        0.2921
@<TRIPOS>BOND
     1    29    26    1
     2    14    11    1
     3    45    42    1
     4    16    15    1
     5    15     7    1
     6    24    22    1
     7     7     4   ar
     8     7     6   ar
     9    27    26    1
    10    19    22    2
    11    19     4    1
    12    19    17    1
    13     4     2   ar
    14     6     8    1
    15     6     3   ar
    16    26    25    1
    17    26    28    1
    18    25    17    1
    19    17    18    1
    20     1     2   ar
    21     1     3   ar
    22     1    10    1
    23     2     5    1
    24     3     9    1
    25    10    11    1
    26    11    12    1
    27    11    13    1
    28    30    43    1
    29    31    42    1
    30    18    20    2
    31    18    21    1
    32    20    34    1
    33    39    37    1
    34    34    37   ar
    35    34    32   ar
    36    42    44    1
    37    41    32    1
    38    37    38   ar
    39    32    33   ar
    40    38    46    1
    41    38    35   ar
    42    46    47    1
    43    33    35   ar
    44    33    36    1
    45    35    40    1
