@<TRIPOS>MOLECULE
mol_data/noopt/geoms/mol2/4lf4lf-4lf-4lf-.out
 62 65 0 0 0
SMALL
GASTEIGER

@<TRIPOS>ATOM
      1 C           0.0509    0.0309    0.0002 C.ar    1  LIG1        0.1209
      2 C           1.4592    0.0309    0.0002 C.ar    1  LIG1       -0.0086
      3 C          -0.6045    1.2792    0.0002 C.ar    1  LIG1       -0.0165
      4 C           2.1849    1.2200   -0.0004 C.ar    1  LIG1        0.0306
      5 H           1.9850   -0.9213    0.0004 H       1  LIG1        0.0661
      6 C           0.1195    2.4666   -0.0004 C.ar    1  LIG1       -0.0161
      7 C           1.5181    2.4458   -0.0008 C.ar    1  LIG1        0.1249
      8 H          -0.4090    3.4165   -0.0003 H       1  LIG1        0.0655
      9 H          -1.9035    1.3287    0.0016 H       1  LIG1        0.0655
     10 O          -0.5709   -1.1108    0.0005 O.3     1  LIG1       -0.4951
     11 C          -1.9830   -0.8853    0.0005 C.3     1  LIG1        0.0788
     12 H          -2.4943   -1.8252    0.0006 H       1  LIG1        0.0660
     13 H          -2.2556   -0.3309    0.8742 H       1  LIG1        0.0660
     14 H          -2.2557   -0.3310   -0.8731 H       1  LIG1        0.0660
     15 O           2.1896    3.5590   -0.0012 O.3     1  LIG1       -0.5062
     16 H           1.5802    4.3008   -0.0013 H       1  LIG1        0.2922
     17 C           4.2212    2.3851    0.0002 C.ar    1  LIG1        0.1287
     18 C           5.6264    2.2916    0.0016 C.ar    1  LIG1       -0.0080
     19 C           3.4843    1.1831   -0.0005 C.ar    1  LIG1        0.0309
     20 C           6.2715    1.0569    0.0017 C.ar    1  LIG1        0.0306
     21 H           6.2143    3.2067    0.0024 H       1  LIG1        0.0661
     22 C           4.1278   -0.0498   -0.0004 C.ar    1  LIG1       -0.0082
     23 C           5.5247   -0.1219    0.0006 C.ar    1  LIG1        0.1255
     24 H           3.5374   -0.9625   -0.0009 H       1  LIG1        0.0661
     25 O           3.6766    3.5656   -0.0001 O.3     1  LIG1       -0.4945
     26 C           4.7008    4.5636   -0.0003 C.3     1  LIG1        0.0788
     27 H           4.2522    5.5351   -0.0007 H       1  LIG1        0.0660
     28 H           5.3081    4.4516    0.8736 H       1  LIG1        0.0660
     29 H           5.3084    4.4510   -0.8737 H       1  LIG1        0.0660
     30 O           6.1208   -1.2773    0.0008 O.3     1  LIG1       -0.5061
     31 H           7.0719   -1.1471    0.0009 H       1  LIG1        0.2922
     32 C           8.3190    2.2022    0.0043 C.ar    1  LIG1        0.1287
     33 C           9.7232    2.0950    0.0071 C.ar    1  LIG1       -0.0080
     34 C           7.5705    1.0074    0.0029 C.ar    1  LIG1        0.0309
     35 C          10.3563    0.8541    0.0079 C.ar    1  LIG1        0.0306
     36 H          10.3199    3.0044    0.0084 H       1  LIG1        0.0661
     37 C           8.2020   -0.2317    0.0037 C.ar    1  LIG1       -0.0082
     38 C           9.5982   -0.3174    0.0061 C.ar    1  LIG1        0.1255
     39 H           7.6028   -1.1386    0.0026 H       1  LIG1        0.0661
     40 O           7.7859    3.3879    0.0034 O.3     1  LIG1       -0.4945
     41 C           8.8197    4.3760    0.0030 C.3     1  LIG1        0.0788
     42 H           8.3805    5.3517    0.0022 H       1  LIG1        0.0660
     43 H           9.4258    4.2584    0.8770 H       1  LIG1        0.0660
     44 H           9.4263    4.2571   -0.8703 H       1  LIG1        0.0660
     45 O          10.1830   -1.4784    0.0069 O.3     1  LIG1       -0.5061
     46 H          11.1353   -1.3575    0.0071 H       1  LIG1        0.2922
     47 C          12.4148    1.9795    0.0125 C.ar    1  LIG1        0.1281
     48 C          13.8179    1.8587    0.0167 C.ar    1  LIG1       -0.0159
     49 C          11.6548    0.7920    0.0104 C.ar    1  LIG1        0.0308
     50 C          14.4389    0.6118    0.0181 C.ar    1  LIG1       -0.0167
     51 H          14.4234    2.7623    0.0186 H       1  LIG1        0.0655
     52 C          12.2742   -0.4531    0.0118 C.ar    1  LIG1       -0.0089
     53 C          13.6695   -0.5523    0.0156 C.ar    1  LIG1        0.1177
     54 H          11.6662   -1.3542    0.0102 H       1  LIG1        0.0661
     55 H          15.7368    0.5371    0.0219 H       1  LIG1        0.0655
     56 O          11.8933    3.1704    0.0110 O.3     1  LIG1       -0.4945
     57 C          12.9366    4.1483    0.0104 C.3     1  LIG1        0.0788
     58 H          12.5069    5.1283    0.0091 H       1  LIG1        0.0660
     59 H          13.5413    4.0253    0.8846 H       1  LIG1        0.0660
     60 H          13.5422    4.0233   -0.8627 H       1  LIG1        0.0660
     61 O          14.2430   -1.7190    0.0171 O.3     1  LIG1       -0.5067
     62 H          15.1965   -1.6073    0.0175 H       1  LIG1        0.2921
@<TRIPOS>BOND
     1    29    26    1
     2    14    11    1
     3    44    41    1
     4    60    57    1
     5    16    15    1
     6    15     7    1
     7    24    22    1
     8     7     6   ar
     9     7     4   ar
    10    27    26    1
    11    19    22   ar
    12    19     4    1
    13    19    17   ar
    14    22    23   ar
    15     6     8    1
    16     6     3   ar
    17     4     2   ar
    18    26    25    1
    19    26    28    1
    20    25    17    1
    21    17    18   ar
    22     2     1   ar
    23     2     5    1
    24     3     1   ar
    25     3     9    1
    26     1    10    1
    27    10    11    1
    28    11    12    1
    29    11    13    1
    30    23    30    1
    31    23    20   ar
    32    30    31    1
    33    18    20   ar
    34    18    21    1
    35    20    34    1
    36    42    41    1
    37    39    37    1
    38    34    37   ar
    39    34    32   ar
    40    41    40    1
    41    41    43    1
    42    40    32    1
    43    37    38   ar
    44    32    33   ar
    45    38    45    1
    46    38    35   ar
    47    45    46    1
    48    33    35   ar
    49    33    36    1
    50    35    49    1
    51    58    57    1
    52    54    52    1
    53    49    52   ar
    54    49    47   ar
    55    57    56    1
    56    57    59    1
    57    56    47    1
    58    52    53   ar
    59    47    48   ar
    60    53    61    1
    61    53    50   ar
    62    48    50   ar
    63    48    51    1
    64    61    62    1
    65    50    55    1
