@<TRIPOS>MOLECULE
mol_data/noopt/geoms/mol2/4lf4lf-.out
 32 33 0 0 0
SMALL
GASTEIGER

@<TRIPOS>ATOM
      1 C           0.0509    0.0309    0.0002 C.ar    1  LIG1        0.1209
      2 C           1.4592    0.0309    0.0002 C.ar    1  LIG1       -0.0086
      3 C          -0.6045    1.2792    0.0002 C.ar    1  LIG1       -0.0165
      4 C           2.1849    1.2200   -0.0004 C.ar    1  LIG1        0.0306
      5 H           1.9850   -0.9213    0.0004 H       1  LIG1        0.0661
      6 C           0.1195    2.4666   -0.0004 C.ar    1  LIG1       -0.0161
      7 C           1.5181    2.4458   -0.0008 C.ar    1  LIG1        0.1249
      8 H          -0.4090    3.4165   -0.0003 H       1  LIG1        0.0655
      9 H          -1.9035    1.3287    0.0016 H       1  LIG1        0.0655
     10 O          -0.5709   -1.1108    0.0005 O.3     1  LIG1       -0.4951
     11 C          -1.9830   -0.8853    0.0005 C.3     1  LIG1        0.0788
     12 H          -2.4943   -1.8252    0.0006 H       1  LIG1        0.0660
     13 H          -2.2556   -0.3309    0.8742 H       1  LIG1        0.0660
     14 H          -2.2557   -0.3310   -0.8731 H       1  LIG1        0.0660
     15 O           2.1896    3.5590   -0.0012 O.3     1  LIG1       -0.5062
     16 H           1.5802    4.3008   -0.0013 H       1  LIG1        0.2922
     17 C           4.2212    2.3851    0.0002 C.ar    1  LIG1        0.1281
     18 C           5.6264    2.2916    0.0016 C.ar    1  LIG1       -0.0159
     19 C           3.4843    1.1831   -0.0005 C.ar    1  LIG1        0.0308
     20 C           6.2715    1.0569    0.0017 C.ar    1  LIG1       -0.0167
     21 H           6.2143    3.2067    0.0024 H       1  LIG1        0.0655
     22 C           4.1278   -0.0498   -0.0004 C.ar    1  LIG1       -0.0089
     23 C           5.5247   -0.1219    0.0006 C.ar    1  LIG1        0.1177
     24 H           3.5374   -0.9625   -0.0009 H       1  LIG1        0.0661
     25 H           7.5706    1.0074    0.0029 H       1  LIG1        0.0655
     26 O           3.6766    3.5656   -0.0001 O.3     1  LIG1       -0.4945
     27 C           4.7008    4.5636   -0.0003 C.3     1  LIG1        0.0788
     28 H           4.2522    5.5351   -0.0007 H       1  LIG1        0.0660
     29 H           5.3081    4.4516    0.8736 H       1  LIG1        0.0660
     30 H           5.3084    4.4510   -0.8737 H       1  LIG1        0.0660
     31 O           6.1208   -1.2773    0.0008 O.3     1  LIG1       -0.5067
     32 H           7.0719   -1.1471    0.0009 H       1  LIG1        0.2921
@<TRIPOS>BOND
     1    30    27    1
     2    14    11    1
     3    16    15    1
     4    15     7    1
     5    24    22    1
     6     7     4   ar
     7     7     6   ar
     8    28    27    1
     9    19    22   ar
    10    19     4    1
    11    19    17   ar
    12    22    23   ar
    13     4     2   ar
    14     6     8    1
    15     6     3   ar
    16    27    26    1
    17    27    29    1
    18    26    17    1
    19    17    18   ar
    20     1     3   ar
    21     1     2   ar
    22     1    10    1
    23     3     9    1
    24     2     5    1
    25    10    11    1
    26    11    12    1
    27    11    13    1
    28    23    31    1
    29    23    20   ar
    30    31    32    1
    31    18    20   ar
    32    18    21    1
    33    20    25    1
