@<TRIPOS>MOLECULE
mol_data/noopt/geoms/mol2/4lf4lf4lf-4lf.out
 62 59 0 0 0
SMALL
GASTEIGER

@<TRIPOS>ATOM
      1 C           0.0509    0.0309    0.0002 C.2     1  LIG1        0.1580
      2 C           1.4592    0.0309    0.0002 C.3     2  LIG2       -0.0681
      3 C          -0.6045    1.2792    0.0002 C.2     1  LIG1       -0.0273
      4 C           2.1849    1.2200   -0.0004 C.2     1  LIG1        0.0345
      5 H           1.9850   -0.9213    0.0004 H       1  LIG1        0.0227
      6 C           0.1195    2.4666   -0.0004 C.3     1  LIG1        0.0520
      7 C           1.5181    2.4458   -0.0008 C.2     1  LIG1        0.1104
      8 H          -0.4090    3.4165   -0.0003 H       1  LIG1        0.0433
      9 H          -1.9035    1.3287    0.0016 H       1  LIG1        0.0617
     10 O          -0.5709   -1.1108    0.0005 O.2     1  LIG1       -0.4918
     11 C          -1.9830   -0.8853    0.0005 C.3     1  LIG1        0.0789
     12 H          -2.4943   -1.8252    0.0006 H       1  LIG1        0.0660
     13 H          -2.2556   -0.3309    0.8742 H       1  LIG1        0.0660
     14 H          -2.2557   -0.3310   -0.8731 H       1  LIG1        0.0660
     15 O           2.1896    3.5590   -0.0012 O.2     1  LIG1       -0.5098
     16 H           1.5802    4.3008   -0.0013 H       1  LIG1        0.2917
     17 C           4.1518   -0.0588    0.0002 C.ar    1  LIG1        0.1299
     18 C           5.5600   -0.0451    0.0016 C.ar    1  LIG1       -0.0083
     19 C           3.4843    1.1831   -0.0005 C.ar    1  LIG1        0.0312
     20 C           6.2742    1.1510    0.0017 C.ar    1  LIG1        0.0262
     21 H           6.0950   -0.9922    0.0024 H       1  LIG1        0.0661
     22 C           4.1968    2.3775   -0.0004 C.ar    1  LIG1       -0.0082
     23 C           5.5955    2.3702    0.0006 C.ar    1  LIG1        0.1251
     24 H           3.6591    3.3222   -0.0009 H       1  LIG1        0.0661
     25 O           3.5411   -1.2065   -0.0001 O.3     1  LIG1       -0.4805
     26 C           2.1269   -0.9946   -0.0003 C.3     1  LIG1        0.1805
     27 H           1.6247   -1.9395   -0.0006 H       1  LIG1        0.0811
     28 H           1.8487   -0.4432    0.8736 H       1  LIG1        0.0227
     29 H           1.8490   -0.4427   -0.8737 H       1  LIG1        0.0227
     30 O           6.2562    3.4899    0.0008 O.3     1  LIG1       -0.5061
     31 H           5.6396    4.2257    0.0009 H       1  LIG1        0.2922
     32 C           8.2991    2.3358    0.0043 C.3     1  LIG1        0.1501
     33 C           9.7051    2.2559    0.0071 C.2     1  LIG1       -0.0363
     34 C           7.5739    1.1267    0.0029 C.2     1  LIG1        0.0022
     35 C          10.3621    1.0275    0.0079 C.2     1  LIG1       -0.0073
     36 H          10.2841    3.1767    0.0084 H       1  LIG1        0.0611
     37 C           8.2293   -0.0999    0.0037 C.2     1  LIG1       -0.0544
     38 C           9.6269   -0.1585    0.0061 C.3     3  LIG3       -0.0309
     39 H           7.6478   -1.0183    0.0026 H       1  LIG1        0.0622
     40 O           7.7431    3.5109    0.0034 O.3     1  LIG1       -0.3643
     41 C           8.7575    4.5188    0.0030 C.3     1  LIG1        0.0382
     42 H           8.2995    5.4859    0.0022 H       1  LIG1        0.0524
     43 H           9.3657    4.4131    0.8770 H       1  LIG1        0.0524
     44 H           9.3663    4.4118   -0.8703 H       1  LIG1        0.0524
     45 O          10.2341   -1.3080    0.0069 O.3     4  HOH4       -0.2528
     46 H          11.1839   -1.1686    0.0071 H       3  LIG3        0.0265
     47 C          12.3290   -0.2513    0.0125 C.ar    1  LIG1        0.1869
     48 C          13.7373   -0.2376    0.0167 C.ar    1  LIG1       -0.0109
     49 C          11.6616    0.9906    0.0104 C.ar    1  LIG1        0.0326
     50 C          14.4514    0.9585    0.0181 C.ar    1  LIG1       -0.0165
     51 H          14.2723   -1.1847    0.0186 H       1  LIG1        0.0657
     52 C          12.3740    2.1850    0.0118 C.ar    1  LIG1       -0.0088
     53 C          13.7727    2.1777    0.0156 C.ar    1  LIG1        0.1177
     54 H          11.8363    3.1297    0.0102 H       1  LIG1        0.0661
     55 H          15.7512    0.9342    0.0219 H       1  LIG1        0.0655
     56 O          11.7184   -1.3990    0.0110 O.3     1  LIG1       -0.2873
     57 C          10.3041   -1.1871    0.0104 C.3     5  LIG5       -0.0531
     58 H           9.8019   -2.1320    0.0091 H       0  HOH0        0.2528
     59 H          10.0256   -0.6364    0.8846 H       3  LIG3        0.0265
     60 H          10.0266   -0.6345   -0.8627 H       2  LIG2        0.0309
     61 O          14.4334    3.2974    0.0171 O.3     1  LIG1       -0.5067
     62 H          13.8168    4.0332    0.0175 H       1  LIG1        0.2921
@<TRIPOS>BOND
     1    29     2    1
     2    14    11    1
     3    44    41    1
     4    60    38    1
     5    16    15    1
     6    15     7    1
     7    24    22    1
     8     7     6    1
     9     7     4    2
    10    27    26    1
    11    19    22   ar
    12    19     4    1
    13    19    17   ar
    14    22    23   ar
    15     6     8    1
    16     6     3    1
    17    26    25    1
    18    25    17    1
    19     2     5    1
    20     2    28    1
    21     3     1    2
    22     3     9    1
    23     1    10    1
    24    17    18   ar
    25    10    11    1
    26    11    12    1
    27    11    13    1
    28    23    30    1
    29    23    20   ar
    30    30    31    1
    31    18    20   ar
    32    18    21    1
    33    20    34    1
    34    42    41    1
    35    39    37    1
    36    34    37    2
    37    34    32    1
    38    41    40    1
    39    41    43    1
    40    40    32    1
    41    32    33    1
    42    45    58    1
    43    33    35    2
    44    33    36    1
    45    46    57    1
    46    35    49    1
    47    54    52    1
    48    49    52   ar
    49    49    47   ar
    50    57    59    1
    51    56    47    1
    52    52    53   ar
    53    47    48   ar
    54    53    61    1
    55    53    50   ar
    56    48    50   ar
    57    48    51    1
    58    61    62    1
    59    50    55    1
