@<TRIPOS>MOLECULE
mol_data/noopt/geoms/mol2/4lf4lf4lf4lf.out
 62 59 0 0 0
SMALL
GASTEIGER

@<TRIPOS>ATOM
      1 C           0.0509    0.0309    0.0002 C.2     1  LIG1        0.1616
      2 C           1.4592    0.0309    0.0002 C.3     2  LIG2       -0.0681
      3 C          -0.6045    1.2792    0.0002 C.2     1  LIG1       -0.0128
      4 C           2.1849    1.2200   -0.0004 C.2     1  LIG1        0.0336
      5 H           1.9850   -0.9213    0.0004 H       1  LIG1        0.0227
      6 C           0.1195    2.4666   -0.0004 C.2     1  LIG1       -0.0160
      7 C           1.5181    2.4458   -0.0008 C.2     1  LIG1        0.1251
      8 H          -0.4090    3.4165   -0.0003 H       1  LIG1        0.0655
      9 H          -1.9035    1.3287    0.0016 H       1  LIG1        0.0656
     10 O          -0.5709   -1.1108    0.0005 O.2     1  LIG1       -0.4915
     11 C          -1.9830   -0.8853    0.0005 C.3     1  LIG1        0.0790
     12 H          -2.4943   -1.8252    0.0006 H       1  LIG1        0.0660
     13 H          -2.2556   -0.3309    0.8742 H       1  LIG1        0.0660
     14 H          -2.2557   -0.3310   -0.8731 H       1  LIG1        0.0660
     15 O           2.1896    3.5590   -0.0012 O.2     1  LIG1       -0.5061
     16 H           1.5802    4.3008   -0.0013 H       1  LIG1        0.2922
     17 C           4.1518   -0.0588    0.0002 C.3     1  LIG1        0.1677
     18 C           5.5600   -0.0451    0.0016 C.3     3  LIG3       -0.0681
     19 C           3.4843    1.1831   -0.0005 C.2     1  LIG1        0.0054
     20 C           6.2742    1.1510    0.0017 C.2     1  LIG1        0.0300
     21 H           6.0950   -0.9922    0.0024 H       2  LIG2        0.0227
     22 C           4.1968    2.3775   -0.0004 C.2     1  LIG1       -0.0128
     23 C           5.5955    2.3702    0.0006 C.2     1  LIG1        0.1251
     24 H           3.6591    3.3222   -0.0009 H       1  LIG1        0.0658
     25 O           3.5411   -1.2065   -0.0001 O.3     1  LIG1       -0.3535
     26 C           2.1269   -0.9946   -0.0003 C.3     1  LIG1        0.1173
     27 H           1.6247   -1.9395   -0.0006 H       1  LIG1        0.0650
     28 H           1.8487   -0.4432    0.8736 H       1  LIG1        0.0227
     29 H           1.8490   -0.4427   -0.8737 H       1  LIG1        0.0227
     30 O           6.2562    3.4899    0.0008 O.2     1  LIG1       -0.5061
     31 H           5.6396    4.2257    0.0009 H       1  LIG1        0.2922
     32 C           8.2534   -0.1087    0.0043 C.3     1  LIG1        0.1641
     33 C           9.6614   -0.0814    0.0071 C.3     4  LIG4       -0.0531
     34 C           7.5739    1.1267    0.0029 C.2     1  LIG1       -0.0091
     35 C          10.3639    1.1216    0.0079 C.2     1  LIG1        0.0345
     36 H          10.2056   -1.0232    0.0084 H       3  LIG3        0.0265
     37 C           8.2747    2.3279    0.0036 C.3     1  LIG1        0.0553
     38 C           9.6734    2.3342    0.0060 C.2     1  LIG1        0.1107
     39 H           7.7279    3.2674    0.0026 H       1  LIG1        0.0436
     40 O           7.6539   -1.2622    0.0034 O.3     1  LIG1       -0.3538
     41 C           6.2377   -1.0641    0.0031 C.3     1  LIG1        0.1173
     42 H           5.7446   -2.0138    0.0022 H       1  LIG1        0.0650
     43 H           5.9540   -0.5158    0.8770 H       2  LIG2        0.0227
     44 H           5.9546   -0.5145   -0.8703 H       2  LIG2        0.0227
     45 O          10.3232    3.4602    0.0069 O.2     1  LIG1       -0.5098
     46 H           9.6996    4.1901    0.0071 H       1  LIG1        0.2917
     47 C          12.3552   -0.1188    0.0125 C.ar    1  LIG1        0.1287
     48 C          13.7629   -0.0778    0.0167 C.ar    1  LIG1       -0.0159
     49 C          11.6638    1.1099    0.0104 C.ar    1  LIG1        0.0311
     50 C          14.4537    1.1319    0.0181 C.ar    1  LIG1       -0.0167
     51 H          14.3162   -1.0143    0.0186 H       1  LIG1        0.0655
     52 C          12.3529    2.3179    0.0118 C.ar    1  LIG1       -0.0088
     53 C          13.7515    2.3378    0.0156 C.ar    1  LIG1        0.1177
     54 H          11.7970    3.2520    0.0102 H       1  LIG1        0.0661
     55 H          15.7537    1.1328    0.0219 H       1  LIG1        0.0655
     56 O          11.7669   -1.2781    0.0110 O.3     1  LIG1       -0.4880
     57 C          10.3489   -1.0938    0.0104 C.3     1  LIG1        0.1235
     58 H           9.8651   -2.0481    0.0091 H       1  LIG1        0.0731
     59 H          10.0597   -0.5486    0.8846 H       1  LIG1        0.0731
     60 H          10.0607   -0.5466   -0.8627 H       3  LIG3        0.0265
     61 O          14.3904    3.4700    0.0171 O.3     1  LIG1       -0.5067
     62 H          13.7596    4.1938    0.0175 H       1  LIG1        0.2921
@<TRIPOS>BOND
     1    29     2    1
     2    14    11    1
     3    44    18    1
     4    60    33    1
     5    16    15    1
     6    15     7    1
     7    24    22    1
     8     7     6    2
     9     7     4    1
    10    27    26    1
    11    19    22    1
    12    19     4    2
    13    19    17    1
    14    22    23    2
    15     6     8    1
    16     6     3    1
    17    26    25    1
    18    25    17    1
    19     2     5    1
    20     2    28    1
    21     3     1    2
    22     3     9    1
    23     1    10    1
    24    10    11    1
    25    11    12    1
    26    11    13    1
    27    23    30    1
    28    23    20    1
    29    30    31    1
    30    18    21    1
    31    18    43    1
    32    20    34    2
    33    42    41    1
    34    39    37    1
    35    34    37    1
    36    34    32    1
    37    41    40    1
    38    40    32    1
    39    37    38    1
    40    38    45    1
    41    38    35    2
    42    45    46    1
    43    33    36    1
    44    35    49    1
    45    58    57    1
    46    54    52    1
    47    49    52   ar
    48    49    47   ar
    49    57    56    1
    50    57    59    1
    51    56    47    1
    52    52    53   ar
    53    47    48   ar
    54    53    61    1
    55    53    50   ar
    56    48    50   ar
    57    48    51    1
    58    61    62    1
    59    50    55    1
