@<TRIPOS>MOLECULE
mol_data/noopt/geoms/mol2/4lf4lf.out
 32 31 0 0 0
SMALL
GASTEIGER

@<TRIPOS>ATOM
      1 C           0.0509    0.0309    0.0002 C.2     1  LIG1        0.1580
      2 C           1.4592    0.0309    0.0002 C.3     2  LIG2       -0.0681
      3 C          -0.6045    1.2792    0.0002 C.2     1  LIG1       -0.0273
      4 C           2.1849    1.2200   -0.0004 C.2     1  LIG1        0.0345
      5 H           1.9850   -0.9213    0.0004 H       1  LIG1        0.0227
      6 C           0.1195    2.4666   -0.0004 C.3     1  LIG1        0.0520
      7 C           1.5181    2.4458   -0.0008 C.2     1  LIG1        0.1104
      8 H          -0.4090    3.4165   -0.0003 H       1  LIG1        0.0433
      9 H          -1.9035    1.3287    0.0016 H       1  LIG1        0.0617
     10 O          -0.5709   -1.1108    0.0005 O.2     1  LIG1       -0.4918
     11 C          -1.9830   -0.8853    0.0005 C.3     1  LIG1        0.0789
     12 H          -2.4943   -1.8252    0.0006 H       1  LIG1        0.0660
     13 H          -2.2556   -0.3309    0.8742 H       1  LIG1        0.0660
     14 H          -2.2557   -0.3310   -0.8731 H       1  LIG1        0.0660
     15 O           2.1896    3.5590   -0.0012 O.2     1  LIG1       -0.5098
     16 H           1.5802    4.3008   -0.0013 H       1  LIG1        0.2917
     17 C           4.1518   -0.0588    0.0002 C.ar    1  LIG1        0.1293
     18 C           5.5600   -0.0451    0.0016 C.ar    1  LIG1       -0.0159
     19 C           3.4843    1.1831   -0.0005 C.ar    1  LIG1        0.0311
     20 C           6.2742    1.1510    0.0017 C.ar    1  LIG1       -0.0167
     21 H           6.0950   -0.9922    0.0024 H       1  LIG1        0.0655
     22 C           4.1968    2.3775   -0.0004 C.ar    1  LIG1       -0.0088
     23 C           5.5955    2.3702    0.0006 C.ar    1  LIG1        0.1177
     24 H           3.6591    3.3222   -0.0009 H       1  LIG1        0.0661
     25 H           7.5740    1.1267    0.0029 H       1  LIG1        0.0655
     26 O           3.5411   -1.2065   -0.0001 O.3     1  LIG1       -0.4806
     27 C           2.1269   -0.9946   -0.0003 C.3     1  LIG1        0.1805
     28 H           1.6247   -1.9395   -0.0006 H       1  LIG1        0.0811
     29 H           1.8487   -0.4432    0.8736 H       1  LIG1        0.0227
     30 H           1.8490   -0.4427   -0.8737 H       1  LIG1        0.0227
     31 O           6.2562    3.4899    0.0008 O.3     1  LIG1       -0.5067
     32 H           5.6396    4.2257    0.0009 H       1  LIG1        0.2921
@<TRIPOS>BOND
     1    30     2    1
     2    14    11    1
     3    16    15    1
     4    15     7    1
     5    24    22    1
     6     7     4    2
     7     7     6    1
     8    28    27    1
     9    19    22   ar
    10    19     4    1
    11    19    17   ar
    12    22    23   ar
    13     6     8    1
    14     6     3    1
    15    27    26    1
    16    26    17    1
    17     3     1    2
    18     3     9    1
    19     1    10    1
    20     2     5    1
    21     2    29    1
    22    17    18   ar
    23    10    11    1
    24    11    12    1
    25    11    13    1
    26    23    31    1
    27    23    20   ar
    28    31    32    1
    29    18    20   ar
    30    18    21    1
    31    20    25    1
