@<TRIPOS>MOLECULE
mol_data/noopt/geoms/mol2/4lf4lf4lf.out
 47 45 0 0 0
SMALL
GASTEIGER

@<TRIPOS>ATOM
      1 C           0.0509    0.0309    0.0002 C.2     1  LIG1        0.1616
      2 C           1.4592    0.0309    0.0002 C.3     2  LIG2       -0.0681
      3 C          -0.6045    1.2792    0.0002 C.2     1  LIG1       -0.0128
      4 C           2.1849    1.2200   -0.0004 C.2     1  LIG1        0.0300
      5 H           1.9850   -0.9213    0.0004 H       1  LIG1        0.0227
      6 C           0.1195    2.4666   -0.0004 C.2     1  LIG1       -0.0160
      7 C           1.5181    2.4458   -0.0008 C.2     1  LIG1        0.1248
      8 H          -0.4090    3.4165   -0.0003 H       1  LIG1        0.0655
      9 H          -1.9035    1.3287    0.0016 H       1  LIG1        0.0656
     10 O          -0.5709   -1.1108    0.0005 O.2     1  LIG1       -0.4915
     11 C          -1.9830   -0.8853    0.0005 C.3     1  LIG1        0.0790
     12 H          -2.4943   -1.8252    0.0006 H       1  LIG1        0.0660
     13 H          -2.2556   -0.3309    0.8742 H       1  LIG1        0.0660
     14 H          -2.2557   -0.3310   -0.8731 H       1  LIG1        0.0660
     15 O           2.1896    3.5590   -0.0012 O.2     1  LIG1       -0.5062
     16 H           1.5802    4.3008   -0.0013 H       1  LIG1        0.2922
     17 C           4.1518   -0.0588    0.0002 C.3     1  LIG1        0.1641
     18 C           5.5600   -0.0451    0.0016 C.3     3  LIG3       -0.0681
     19 C           3.4843    1.1831   -0.0005 C.2     1  LIG1       -0.0091
     20 C           6.2742    1.1510    0.0017 C.2     1  LIG1        0.0345
     21 H           6.0950   -0.9922    0.0024 H       2  LIG2        0.0227
     22 C           4.1968    2.3775   -0.0004 C.3     1  LIG1        0.0553
     23 C           5.5955    2.3702    0.0006 C.2     1  LIG1        0.1107
     24 H           3.6591    3.3222   -0.0009 H       1  LIG1        0.0436
     25 O           3.5411   -1.2065   -0.0001 O.3     1  LIG1       -0.3538
     26 C           2.1269   -0.9946   -0.0003 C.3     1  LIG1        0.1173
     27 H           1.6247   -1.9395   -0.0006 H       1  LIG1        0.0650
     28 H           1.8487   -0.4432    0.8736 H       1  LIG1        0.0227
     29 H           1.8490   -0.4427   -0.8737 H       1  LIG1        0.0227
     30 O           6.2562    3.4899    0.0008 O.2     1  LIG1       -0.5098
     31 H           5.6396    4.2257    0.0009 H       1  LIG1        0.2917
     32 C           8.2534   -0.1087    0.0043 C.ar    1  LIG1        0.1293
     33 C           9.6614   -0.0814    0.0071 C.ar    1  LIG1       -0.0159
     34 C           7.5739    1.1267    0.0029 C.ar    1  LIG1        0.0311
     35 C          10.3639    1.1216    0.0079 C.ar    1  LIG1       -0.0167
     36 H          10.2056   -1.0232    0.0084 H       1  LIG1        0.0655
     37 C           8.2747    2.3279    0.0036 C.ar    1  LIG1       -0.0088
     38 C           9.6734    2.3342    0.0060 C.ar    1  LIG1        0.1177
     39 H           7.7279    3.2674    0.0026 H       1  LIG1        0.0661
     40 H          11.6639    1.1099    0.0104 H       1  LIG1        0.0655
     41 O           7.6539   -1.2622    0.0034 O.3     1  LIG1       -0.4806
     42 C           6.2377   -1.0641    0.0031 C.3     1  LIG1        0.1805
     43 H           5.7446   -2.0138    0.0022 H       1  LIG1        0.0811
     44 H           5.9540   -0.5158    0.8770 H       2  LIG2        0.0227
     45 H           5.9546   -0.5145   -0.8703 H       2  LIG2        0.0227
     46 O          10.3232    3.4602    0.0069 O.3     1  LIG1       -0.5067
     47 H           9.6996    4.1901    0.0071 H       1  LIG1        0.2921
@<TRIPOS>BOND
     1    29     2    1
     2    14    11    1
     3    45    18    1
     4    16    15    1
     5    15     7    1
     6    24    22    1
     7     7     4    1
     8     7     6    2
     9    27    26    1
    10    19    22    1
    11    19     4    2
    12    19    17    1
    13    22    23    1
    14     6     8    1
    15     6     3    1
    16    26    25    1
    17    25    17    1
    18     1     3    2
    19     1    10    1
    20     2     5    1
    21     2    28    1
    22     3     9    1
    23    10    11    1
    24    11    12    1
    25    11    13    1
    26    23    30    1
    27    23    20    2
    28    30    31    1
    29    18    21    1
    30    18    44    1
    31    20    34    1
    32    43    42    1
    33    39    37    1
    34    34    37   ar
    35    34    32   ar
    36    42    41    1
    37    41    32    1
    38    37    38   ar
    39    32    33   ar
    40    38    46    1
    41    38    35   ar
    42    46    47    1
    43    33    35   ar
    44    33    36    1
    45    35    40    1
