@<TRIPOS>MOLECULE
mol_data/noopt/geoms/mol2/4lf4lf-4lf4lf.out
 62 59 0 0 0
SMALL
GASTEIGER

@<TRIPOS>ATOM
      1 C           0.0509    0.0309    0.0002 C.ar    1  LIG1        0.1209
      2 C           1.4592    0.0309    0.0002 C.ar    1  LIG1       -0.0086
      3 C          -0.6045    1.2792    0.0002 C.ar    1  LIG1       -0.0165
      4 C           2.1849    1.2200   -0.0004 C.ar    1  LIG1        0.0305
      5 H           1.9850   -0.9213    0.0004 H       1  LIG1        0.0661
      6 C           0.1195    2.4666   -0.0004 C.ar    1  LIG1       -0.0161
      7 C           1.5181    2.4458   -0.0008 C.ar    1  LIG1        0.1249
      8 H          -0.4090    3.4165   -0.0003 H       1  LIG1        0.0655
      9 H          -1.9035    1.3287    0.0016 H       1  LIG1        0.0655
     10 O          -0.5709   -1.1108    0.0005 O.3     1  LIG1       -0.4951
     11 C          -1.9830   -0.8853    0.0005 C.3     1  LIG1        0.0788
     12 H          -2.4943   -1.8252    0.0006 H       1  LIG1        0.0660
     13 H          -2.2556   -0.3309    0.8742 H       1  LIG1        0.0660
     14 H          -2.2557   -0.3310   -0.8731 H       1  LIG1        0.0660
     15 O           2.1896    3.5590   -0.0012 O.3     1  LIG1       -0.5062
     16 H           1.5802    4.3008   -0.0013 H       1  LIG1        0.2922
     17 C           4.2212    2.3851    0.0002 C.2     1  LIG1        0.1285
     18 C           5.6264    2.2916    0.0016 C.2     1  LIG1       -0.0116
     19 C           3.4843    1.1831   -0.0005 C.2     1  LIG1        0.0274
     20 C           6.2715    1.0569    0.0017 C.2     1  LIG1       -0.0113
     21 H           6.2143    3.2067    0.0024 H       1  LIG1        0.0660
     22 C           4.1278   -0.0498   -0.0004 C.2     1  LIG1       -0.0497
     23 C           5.5247   -0.1219    0.0006 C.3     2  LIG2        0.0000
     24 H           3.5374   -0.9625   -0.0009 H       1  LIG1        0.0625
     25 O           3.6766    3.5656   -0.0001 O.2     1  LIG1       -0.4945
     26 C           4.7008    4.5636   -0.0003 C.3     1  LIG1        0.0788
     27 H           4.2522    5.5351   -0.0007 H       1  LIG1        0.0660
     28 H           5.3081    4.4516    0.8736 H       1  LIG1        0.0660
     29 H           5.3084    4.4510   -0.8737 H       1  LIG1        0.0660
     30 O           6.1208   -1.2773    0.0008 O.3     3  HOH3       -0.2528
     31 H           7.0719   -1.1471    0.0009 H       3  HOH3        0.0227
     32 C           8.2259   -0.2409    0.0043 C.3     1  LIG1        0.2045
     33 C           9.6342   -0.2409    0.0071 C.3     4  LIG4       -0.0531
     34 C           7.5705    1.0074    0.0029 C.2     1  LIG1       -0.0093
     35 C          10.3599    0.9482    0.0079 C.2     1  LIG1        0.0345
     36 H          10.1600   -1.1931    0.0084 H       2  LIG2        0.0265
     37 C           8.2945    2.1948    0.0036 C.3     1  LIG1        0.0553
     38 C           9.6931    2.1740    0.0060 C.2     1  LIG1        0.1107
     39 H           7.7660    3.1447    0.0026 H       1  LIG1        0.0436
     40 O           7.6041   -1.3826    0.0034 O.3     1  LIG1       -0.2155
     41 C           6.1920   -1.1571    0.0031 C.3     5  LIG5       -0.0681
     42 H           5.6807   -2.0970    0.0022 H       0  HOH0        0.2528
     43 H           5.9190   -0.6034    0.8770 H       3  HOH3        0.0227
     44 H           5.9197   -0.6021   -0.8703 H       3  HOH3        0.0227
     45 O          10.3646    3.2872    0.0069 O.2     1  LIG1       -0.5098
     46 H           9.7552    4.0290    0.0071 H       1  LIG1        0.2917
     47 C          12.3268   -0.3306    0.0125 C.ar    1  LIG1        0.1287
     48 C          13.7350   -0.3169    0.0167 C.ar    1  LIG1       -0.0159
     49 C          11.6593    0.9113    0.0104 C.ar    1  LIG1        0.0311
     50 C          14.4491    0.8791    0.0181 C.ar    1  LIG1       -0.0167
     51 H          14.2700   -1.2640    0.0186 H       1  LIG1        0.0655
     52 C          12.3718    2.1056    0.0118 C.ar    1  LIG1       -0.0088
     53 C          13.7705    2.0984    0.0156 C.ar    1  LIG1        0.1177
     54 H          11.8341    3.0504    0.0102 H       1  LIG1        0.0661
     55 H          15.7489    0.8548    0.0219 H       1  LIG1        0.0655
     56 O          11.7161   -1.4783    0.0110 O.3     1  LIG1       -0.4880
     57 C          10.3019   -1.2665    0.0104 C.3     1  LIG1        0.1235
     58 H           9.7997   -2.2113    0.0091 H       1  LIG1        0.0731
     59 H          10.0233   -0.7157    0.8846 H       1  LIG1        0.0731
     60 H          10.0244   -0.7138   -0.8627 H       2  LIG2        0.0265
     61 O          14.4311    3.2181    0.0171 O.3     1  LIG1       -0.5067
     62 H          13.8146    3.9539    0.0175 H       1  LIG1        0.2921
@<TRIPOS>BOND
     1    29    26    1
     2    14    11    1
     3    44    41    1
     4    60    33    1
     5    16    15    1
     6    15     7    1
     7    24    22    1
     8     7     6   ar
     9     7     4   ar
    10    27    26    1
    11    19    22    2
    12    19     4    1
    13    19    17    1
    14     6     8    1
    15     6     3   ar
    16     4     2   ar
    17    26    25    1
    18    26    28    1
    19    25    17    1
    20    17    18    2
    21     2     1   ar
    22     2     5    1
    23     3     1   ar
    24     3     9    1
    25     1    10    1
    26    10    11    1
    27    11    12    1
    28    11    13    1
    29    30    42    1
    30    31    41    1
    31    18    20    1
    32    18    21    1
    33    20    34    2
    34    39    37    1
    35    34    37    1
    36    34    32    1
    37    41    43    1
    38    40    32    1
    39    37    38    1
    40    38    45    1
    41    38    35    2
    42    45    46    1
    43    33    36    1
    44    35    49    1
    45    58    57    1
    46    54    52    1
    47    49    52   ar
    48    49    47   ar
    49    57    56    1
    50    57    59    1
    51    56    47    1
    52    52    53   ar
    53    47    48   ar
    54    53    61    1
    55    53    50   ar
    56    48    50   ar
    57    48    51    1
    58    61    62    1
    59    50    55    1
