@<TRIPOS>MOLECULE
mol_data/noopt/geoms/mol2/4lf6fd(40)6hl(110)4lf(180).out
 58 61 0 0 0
SMALL
GASTEIGER

@<TRIPOS>ATOM
      1 C           0.0509    0.0309    0.0002 C.ar    1  LIG1        0.1209
      2 C           1.4592    0.0309    0.0002 C.ar    1  LIG1       -0.0086
      3 C          -0.6045    1.2792    0.0002 C.ar    1  LIG1       -0.0165
      4 C           2.1849    1.2200   -0.0004 C.ar    1  LIG1        0.0321
      5 H           1.9850   -0.9213    0.0004 H       1  LIG1        0.0661
      6 C           0.1195    2.4666   -0.0004 C.ar    1  LIG1       -0.0161
      7 C           1.5181    2.4458   -0.0008 C.ar    1  LIG1        0.1249
      8 H          -0.4090    3.4165   -0.0003 H       1  LIG1        0.0655
      9 H          -1.9035    1.3287    0.0016 H       1  LIG1        0.0655
     10 O          -0.5709   -1.1108    0.0005 O.3     1  LIG1       -0.4951
     11 C          -1.9830   -0.8853    0.0005 C.3     1  LIG1        0.0788
     12 H          -2.4943   -1.8252    0.0006 H       1  LIG1        0.0660
     13 H          -2.2556   -0.3309    0.8742 H       1  LIG1        0.0660
     14 H          -2.2557   -0.3310   -0.8731 H       1  LIG1        0.0660
     15 O           2.1896    3.5590   -0.0012 O.3     1  LIG1       -0.5062
     16 H           1.5802    4.3008   -0.0013 H       1  LIG1        0.2922
     17 C           4.2216    2.0929   -0.7803 C.ar    1  LIG1        0.2210
     18 C           3.4844    1.1831   -0.0005 C.ar    1  LIG1        0.0484
     19 C           4.1795    0.2471    0.7675 C.ar    1  LIG1       -0.0293
     20 C           5.5750    0.2512    0.7309 C.ar    1  LIG1        0.0786
     21 C           6.2227    1.2008   -0.0804 C.ar    1  LIG1        0.0955
     22 N           5.5678    2.1110   -0.8274 N.ar    1  LIG1       -0.2111
     23 H           3.6377   -0.4803    1.3885 H       1  LIG1        0.0639
     24 O           3.6194    2.9831   -1.5119 O.3     1  LIG1       -0.4920
     25 H           2.7215    2.6954   -1.6922 H       1  LIG1        0.2937
     26 N           6.8792   -1.3506    2.0419 N.1     1  LIG1       -0.1908
     27 C           6.2680   -0.5999    1.4275 C.1     1  LIG1        0.1013
     28 C           8.1850    0.8511   -1.3236 C.ar    1  LIG1        0.1264
     29 C           7.5202    1.2444   -0.1476 C.ar    1  LIG1        0.0447
     30 C           8.2845    1.6796    0.9366 C.ar    1  LIG1       -0.0053
     31 C           9.6745    1.7069    0.8110 C.ar    1  LIG1        0.1468
     32 C          10.2471    1.2936   -0.4059 C.ar    1  LIG1        0.1182
     33 N           9.5249    0.8711   -1.4620 N.ar    1  LIG1       -0.2280
     34 H           7.8004    1.9937    1.8721 H       1  LIG1        0.0662
     35 N           7.5168    0.4386   -2.3597 N.pl3   1  LIG1       -0.3426
     36 H           7.2363    1.2250   -2.9100 H       1  LIG1        0.1437
     37 H           8.0941   -0.1645   -2.9101 H       1  LIG1        0.1437
     38 O          10.4302    2.1036    1.7916 O.3     1  LIG1       -0.4929
     39 C          11.3343    1.0558    2.1515 C.3     1  LIG1        0.0789
     40 H          11.9562    1.3828    2.9585 H       1  LIG1        0.0660
     41 H          10.7783    0.1939    2.4565 H       1  LIG1        0.0660
     42 H          11.9450    0.8065    1.3091 H       1  LIG1        0.0660
     43 C          12.2259    2.5277   -0.6613 C.ar    1  LIG1        0.1296
     44 C          13.6218    2.4823   -0.8418 C.ar    1  LIG1       -0.0159
     45 C          11.5364    1.3012   -0.5712 C.ar    1  LIG1        0.0491
     46 C          14.3033    1.2705   -0.9284 C.ar    1  LIG1       -0.0167
     47 H          14.1733    3.4171   -0.9140 H       1  LIG1        0.0655
     48 C          12.2163    0.0911   -0.6576 C.ar    1  LIG1       -0.0074
     49 C          13.6034    0.0668   -0.8366 C.ar    1  LIG1        0.1177
     50 H          11.6622   -0.8413   -0.5854 H       1  LIG1        0.0662
     51 H          15.5926    1.2655   -1.0950 H       1  LIG1        0.0655
     52 O          11.6459    3.6889   -0.5875 O.3     1  LIG1       -0.4944
     53 C          12.6389    4.7175   -0.5605 C.3     1  LIG1        0.0788
     54 H          12.1612    5.6730   -0.4999 H       1  LIG1        0.0660
     55 H          13.2715    4.5804    0.2916 H       1  LIG1        0.0660
     56 H          13.2272    4.6689   -1.4529 H       1  LIG1        0.0660
     57 O          14.2336   -1.0675   -0.9168 O.3     1  LIG1       -0.5067
     58 H          15.1800   -0.9075   -0.9366 H       1  LIG1        0.2921
@<TRIPOS>BOND
     1    37    35    1
     2    36    35    1
     3    35    28    1
     4    25    24    1
     5    24    17    1
     6    33    28   ar
     7    33    32   ar
     8    56    53    1
     9    28    29   ar
    10    51    46    1
    11    58    57    1
    12    46    44   ar
    13    46    49   ar
    14    57    49    1
    15    47    44    1
    16    14    11    1
    17    44    43   ar
    18    49    48   ar
    19    22    17   ar
    20    22    21   ar
    21    17    18   ar
    22    43    52    1
    23    43    45   ar
    24    48    50    1
    25    48    45   ar
    26    52    53    1
    27    45    32    1
    28    53    54    1
    29    53    55    1
    30    32    31   ar
    31    29    21    1
    32    29    30   ar
    33    21    20   ar
    34    16    15    1
    35    15     7    1
    36     7     6   ar
    37     7     4   ar
    38    18     4    1
    39    18    19   ar
    40     6     8    1
    41     6     3   ar
    42     4     2   ar
    43     1     2   ar
    44     1     3   ar
    45     1    10    1
    46     2     5    1
    47     3     9    1
    48    10    11    1
    49    11    12    1
    50    11    13    1
    51    20    19   ar
    52    20    27    1
    53    19    23    1
    54    31    30   ar
    55    31    38    1
    56    30    34    1
    57    42    39    1
    58    27    26    3
    59    38    39    1
    60    39    41    1
    61    39    40    1
