@<TRIPOS>MOLECULE
mol_data/noopt/geoms/mol2/4lf6aa-12lh12af-6fd4ih12hl6ei.out
 100 105 0 0 0
SMALL
GASTEIGER

@<TRIPOS>ATOM
      1 C           0.0509    0.0309    0.0002 C.ar    1  LIG1        0.1209
      2 C           1.4592    0.0309    0.0002 C.ar    1  LIG1       -0.0087
      3 C          -0.6045    1.2792    0.0002 C.ar    1  LIG1       -0.0165
      4 C           2.1849    1.2200   -0.0004 C.ar    1  LIG1        0.0285
      5 H           1.9850   -0.9213    0.0004 H       1  LIG1        0.0661
      6 C           0.1195    2.4666   -0.0004 C.ar    1  LIG1       -0.0161
      7 C           1.5181    2.4458   -0.0008 C.ar    1  LIG1        0.1248
      8 H          -0.4090    3.4165   -0.0003 H       1  LIG1        0.0655
      9 H          -1.9035    1.3287    0.0016 H       1  LIG1        0.0655
     10 O          -0.5709   -1.1108    0.0005 O.3     1  LIG1       -0.4951
     11 C          -1.9830   -0.8853    0.0005 C.3     1  LIG1        0.0788
     12 H          -2.4943   -1.8252    0.0006 H       1  LIG1        0.0660
     13 H          -2.2556   -0.3309    0.8742 H       1  LIG1        0.0660
     14 H          -2.2557   -0.3310   -0.8731 H       1  LIG1        0.0660
     15 O           2.1896    3.5590   -0.0012 O.3     1  LIG1       -0.5062
     16 H           1.5802    4.3008   -0.0013 H       1  LIG1        0.2922
     17 C           4.2297    2.3762   -0.0216 C.ar    1  LIG1        0.0362
     18 C           3.4844    1.1831   -0.0005 C.ar    1  LIG1        0.0044
     19 C           4.1715   -0.0320    0.0205 C.ar    1  LIG1       -0.0425
     20 C           5.5674   -0.0147    0.0195 C.ar    1  LIG1        0.0140
     21 C           6.2235    1.2297   -0.0026 C.ar    1  LIG1        0.1176
     22 N           5.5764    2.4113   -0.0228 N.ar    1  LIG1       -0.2505
     23 H           3.6233   -0.9846    0.0362 H       1  LIG1        0.0631
     24 H           3.6351    3.5321   -0.0414 H       1  LIG1        0.0836
     25 H           6.2531   -1.1189    0.0383 H       1  LIG1        0.0194
     26 C           7.5217    1.2976   -0.0044 C.ar    1  LIG1        0.2027
     27 C           8.5543    0.3828   -0.0057 C.ar    1  LIG1        0.2470
     28 C           9.7848    1.1462   -0.0074 C.ar    1  LIG1        0.1191
     29 C           9.4223    2.4775   -0.0071 C.ar    1  LIG1        0.1610
     30 O           8.0321    2.5965   -0.0053 O.2     1  LIG1       -0.4474
     31 O           8.4681   -0.9144   -0.0054 O.3     1  LIG1       -0.2818
     32 C           7.0914   -1.3012   -0.0053 C.3     2  LIG2       -0.0776
     33 H           7.0209   -2.3689   -0.0053 H       1  LIG1        0.0194
     34 H           6.6116   -0.9121    0.8683 H       1  LIG1        0.0194
     35 H           6.6115   -0.9122   -0.8790 H       1  LIG1        0.0194
     36 N          10.9855    0.6479   -0.0089 N.pl3   1  LIG1       -0.3520
     37 H          10.9799   -0.2338   -0.4807 H       1  LIG1        0.1425
     38 H          11.6058    1.2745   -0.4808 H       1  LIG1        0.1425
     39 C          10.0591    3.6108   -0.0080 C.2     1  LIG1        0.0336
     40 C          11.3843    3.9942   -0.0087 C.2     1  LIG1       -0.0049
     41 C          11.3972    5.4422   -0.0096 C.2     1  LIG1        0.1650
     42 C          10.0784    5.8478   -0.0095 C.2     1  LIG1        0.2322
     43 O           9.2345    4.7367   -0.0086 O.2     1  LIG1       -0.2832
     44 H          12.4343    3.2278   -0.0085 H       1  LIG1        0.0662
     45 O          12.4603    6.1905   -0.0104 O.2     1  LIG1       -0.5031
     46 H          12.2015    7.1149   -0.0106 H       1  LIG1        0.2923
     47 C           8.0552    7.0415   -0.0101 C.ar    1  LIG1        0.2241
     48 C           9.4612    6.9919   -0.0100 C.ar    1  LIG1        0.0872
     49 C          10.1707    8.1943   -0.0101 C.ar    1  LIG1       -0.0350
     50 C           9.4584    9.3948   -0.0105 C.ar    1  LIG1        0.0217
     51 C           8.0525    9.3415   -0.0108 C.ar    1  LIG1        0.0838
     52 N           7.3520    8.1905   -0.0105 N.ar    1  LIG1       -0.2118
     53 H          11.2699    8.1953   -0.0110 H       1  LIG1        0.0633
     54 O           7.3506    5.9489   -0.0099 O.3     1  LIG1       -0.4919
     55 H           7.9376    5.1892   -0.0098 H       1  LIG1        0.2938
     56 N          10.6142   11.5512   -0.0111 N.2     1  LIG1       -0.1570
     57 C          10.0725   10.5406   -0.0108 C.2     1  LIG1        0.0591
     58 C           7.9886   11.6867   -0.0105 C.ar    1  LIG1       -0.0371
     59 C           7.1778   12.8382   -0.0093 C.ar    1  LIG1       -0.0454
     60 C           7.3451   10.4321   -0.0111 C.ar    1  LIG1        0.0060
     61 C           5.7878   12.7471   -0.0093 C.ar    1  LIG1        0.0401
     62 H           7.6537   13.8163   -0.0086 H       1  LIG1        0.0628
     63 C           5.9574   10.3406   -0.0111 C.ar    1  LIG1       -0.0309
     64 C           5.1693   11.4962   -0.0103 C.ar    1  LIG1        0.0360
     65 H           5.4850    9.3616   -0.0115 H       1  LIG1        0.0643
     66 C           9.2803   11.8355   -0.0107 C.3     1  LIG1       -0.0230
     67 H           9.5347   12.7443    0.4937 H       1  LIG1        0.0317
     68 H           9.6345   11.8764   -1.0196 H       1  LIG1        0.0317
     69 H           9.7347   11.0084    0.4936 H       1  LIG1        0.0855
     70 N           3.8725   11.4044   -0.0102 N.pl3   1  LIG1       -0.3574
     71 H           3.4824   12.1954   -0.4816 H       1  LIG1        0.1423
     72 H           3.5976   10.5665   -0.4816 H       1  LIG1        0.1423
     73 C           5.0699   13.8308   -0.0083 C.ar    1  LIG1        0.1617
     74 C           5.3334   15.1849   -0.0075 C.ar    1  LIG1        0.1140
     75 C           4.0508   15.8571   -0.0066 C.ar    1  LIG1        0.1871
     76 C           3.0881   14.8687   -0.0069 C.ar    1  LIG1        0.1816
     77 O           3.6918   13.6107   -0.0081 O.2     1  LIG1       -0.4490
     78 N           6.4945   15.7696   -0.0076 N.pl3   1  LIG1       -0.3522
     79 H           7.1594   15.1902   -0.4790 H       1  LIG1        0.1425
     80 H           6.4251   16.6487   -0.4790 H       1  LIG1        0.1425
     81 O           3.8701   17.1446   -0.0056 O.3     1  LIG1       -0.4896
     82 C           5.1386   17.8046   -0.0054 C.3     1  LIG1        0.0791
     83 H           4.9895   18.8641   -0.0048 H       1  LIG1        0.0660
     84 H           5.6879   17.5213    0.8681 H       1  LIG1        0.0660
     85 H           5.6878   17.5222   -0.8792 H       1  LIG1        0.0660
     86 C           1.1028   13.6131   -0.0059 C.ar    1  LIG1        0.1239
     87 C           1.7884   14.8416   -0.0063 C.ar    1  LIG1        0.0550
     88 C           1.0423   16.0215   -0.0059 C.ar    1  LIG1       -0.0439
     89 C          -0.3510   15.9355   -0.0052 C.ar    1  LIG1       -0.0316
     90 C          -0.9451   14.6602   -0.0050 C.ar    1  LIG1        0.0319
     91 N          -0.2406   13.5117   -0.0052 N.ar    1  LIG1       -0.2457
     92 H           1.5429   17.0001   -0.0072 H       1  LIG1        0.0629
     93 H          -2.2384   14.5284   -0.0042 H       1  LIG1        0.0832
     94 C           1.7535   12.4877   -0.0062 C.1     1  LIG1       -0.0491
     95 C           2.3548   11.4478   -0.0065 C.1     1  LIG1       -0.1124
     96 H           2.8904   10.5215   -0.0067 H       1  LIG1        0.1232
     97 C          -1.0905   17.0051   -0.0049 C.3     1  LIG1       -0.0383
     98 H          -2.0119   16.8015    0.4996 H       1  LIG1        0.0278
     99 H          -1.2935   17.2986   -1.0137 H       1  LIG1        0.0278
    100 H          -0.5746   17.7952    0.4995 H       1  LIG1        0.0278
@<TRIPOS>BOND
     1    68    66    1
     2    99    97    1
     3    85    82    1
     4    35    32    1
     5    14    11    1
     6    72    70    1
     7    71    70    1
     8    38    36    1
     9    37    36    1
    10    80    78    1
    11    79    78    1
    12    24    17    1
    13    22    17   ar
    14    22    21   ar
    15    17    18   ar
    16    65    63    1
    17    63    60   ar
    18    63    64   ar
    19    60    51    1
    20    60    58   ar
    21    56    57    2
    22    53    49    1
    23    57    50    1
    24    57    69    1
    25    51    50   ar
    26    51    52   ar
    27    66    58    1
    28    66    67    1
    29    46    45    1
    30    50    49   ar
    31    52    47   ar
    32    58    59   ar
    33    45    41    1
    34    64    70    1
    35    64    61   ar
    36    49    48   ar
    37    47    48   ar
    38    47    54    1
    39    48    42    1
    40    54    55    1
    41    41    42    2
    42    41    40    1
    43    42    43    1
    44    61    59   ar
    45    61    73    1
    46    59    62    1
    47    36    28    1
    48    40    44    1
    49    40    39    2
    50    73    77   ar
    51    73    74   ar
    52    77    76   ar
    53    39    29    1
    54    78    74    1
    55    74    75   ar
    56    28    29   ar
    57    28    27   ar
    58    92    88    1
    59    29    30   ar
    60    76    75   ar
    61    76    87    1
    62    96    95    1
    63    75    81    1
    64    95    94    3
    65    87    86   ar
    66    87    88   ar
    67    94    86    1
    68    86    91   ar
    69    88    89   ar
    70    27    31    1
    71    27    26   ar
    72    81    82    1
    73    82    83    1
    74    82    84    1
    75    30    26   ar
    76    32    33    1
    77    32    25    1
    78    32    34    1
    79    91    90   ar
    80    89    90   ar
    81    89    97    1
    82    90    93    1
    83    97   100    1
    84    97    98    1
    85    26    21    1
    86    21    20   ar
    87    16    15    1
    88    15     7    1
    89     7     6   ar
    90     7     4   ar
    91    18     4    1
    92    18    19   ar
    93     6     8    1
    94     6     3   ar
    95     4     2   ar
    96     1     2   ar
    97     1     3   ar
    98     1    10    1
    99     2     5    1
   100     3     9    1
   101    10    11    1
   102    11    12    1
   103    11    13    1
   104    20    19   ar
   105    19    23    1
