@<TRIPOS>MOLECULE
mol_data/noopt/geoms/mol2/4lh12fe(340)13ih(90)12hd.out
 51 54 0 0 0
SMALL
GASTEIGER

@<TRIPOS>ATOM
      1 C           0.0509    0.0309    0.0002 C.ar    1  LIG1        0.1209
      2 C           1.4592    0.0309    0.0002 C.ar    1  LIG1       -0.0074
      3 C          -0.6045    1.2792    0.0002 C.ar    1  LIG1       -0.0182
      4 C           2.1849    1.2200   -0.0004 C.ar    1  LIG1        0.0450
      5 H           1.9850   -0.9213    0.0004 H       1  LIG1        0.0662
      6 C           0.1195    2.4666   -0.0004 C.ar    1  LIG1       -0.0369
      7 C           1.5181    2.4458   -0.0008 C.ar    1  LIG1        0.0357
      8 H          -0.4090    3.4165   -0.0003 H       1  LIG1        0.0637
      9 H          -1.9035    1.3287    0.0016 H       1  LIG1        0.0655
     10 O          -0.5709   -1.1108    0.0005 O.3     1  LIG1       -0.4951
     11 C          -1.9830   -0.8853    0.0005 C.3     1  LIG1        0.0788
     12 H          -2.4943   -1.8252    0.0006 H       1  LIG1        0.0660
     13 H          -2.2556   -0.3309    0.8742 H       1  LIG1        0.0660
     14 H          -2.2557   -0.3310   -0.8731 H       1  LIG1        0.0660
     15 N           2.1896    3.5590   -0.0012 N.pl3   1  LIG1       -0.3574
     16 H           3.0608    3.4225   -0.4727 H       1  LIG1        0.1423
     17 H           1.6626    4.2660   -0.4727 H       1  LIG1        0.1423
     18 C           3.4844    1.1831   -0.0005 C.ar    1  LIG1        0.1801
     19 C           4.4412    0.2338   -0.2945 C.ar    1  LIG1        0.1791
     20 C           5.7282    0.8627   -0.0825 C.ar    1  LIG1        0.1139
     21 C           5.4724    2.1551    0.3270 C.ar    1  LIG1        0.1711
     22 O           4.0961    2.3767    0.3852 O.2     1  LIG1       -0.4482
     23 O           4.2525   -0.9913   -0.6865 O.3     1  LIG1       -0.5024
     24 H           5.1004   -1.4310   -0.7831 H       1  LIG1        0.2923
     25 C           6.8857    0.2958   -0.2528 C.1     1  LIG1       -0.0621
     26 C           7.9551   -0.2280   -0.4101 C.1     1  LIG1       -0.1137
     27 H           8.9078   -0.6946   -0.5503 H       1  LIG1        0.1232
     28 C           6.1970    3.1816    0.6607 C.ar    1  LIG1        0.0887
     29 C           6.5359    3.6608    1.8868 C.ar    1  LIG1       -0.0008
     30 C           7.3521    4.8195    1.6826 C.ar    1  LIG1        0.0569
     31 C           7.4776    4.9965    0.3405 C.ar    1  LIG1        0.1056
     32 N           6.7715    3.9961   -0.2888 N.ar    1  LIG1       -0.3476
     33 H           6.6901    3.8801   -1.2727 H       1  LIG1        0.1661
     34 C           6.1810    3.1578    3.0322 C.3     1  LIG1       -0.0358
     35 H           7.0536    2.8792    3.5852 H       1  LIG1        0.0279
     36 H           5.5714    2.2937    2.8687 H       1  LIG1        0.0279
     37 H           5.6259    3.8865    3.5851 H       1  LIG1        0.0279
     38 N           7.8783    5.5667    2.6072 N.pl3   1  LIG1       -0.3560
     39 H           8.8738    5.5623    2.5129 H       1  LIG1        0.1424
     40 H           7.5387    6.5025    2.5129 H       1  LIG1        0.1424
     41 C           8.1177    5.9046   -0.3344 C.ar    1  LIG1        0.1745
     42 C           9.3927    6.0341   -0.8449 C.ar    1  LIG1        0.0901
     43 C           9.4469    7.3226   -1.5036 C.ar    1  LIG1        0.1107
     44 C           8.2008    7.8951   -1.3519 C.ar    1  LIG1        0.1119
     45 O           7.3637    7.0399   -0.6344 O.2     1  LIG1       -0.4582
     46 H           7.6452    9.0136   -1.7128 H       1  LIG1        0.1043
     47 N          10.3721    5.1829   -0.7650 N.pl3   1  LIG1       -0.3540
     48 H          10.1094    4.3294   -1.2150 H       1  LIG1        0.1425
     49 H          11.1806    5.5619   -1.2150 H       1  LIG1        0.1425
     50 N          11.3959    8.2572   -2.6498 N.1     1  LIG1       -0.1907
     51 C          10.4825    7.8192   -2.1126 C.1     1  LIG1        0.1042
@<TRIPOS>BOND
     1    50    51    3
     2    51    43    1
     3    46    44    1
     4    43    44   ar
     5    43    42   ar
     6    44    45   ar
     7    33    32    1
     8    49    47    1
     9    48    47    1
    10    14    11    1
    11    42    47    1
    12    42    41   ar
    13    24    23    1
    14    23    19    1
    15    45    41   ar
    16    27    26    1
    17    17    15    1
    18    16    15    1
    19    26    25    3
    20    41    31    1
    21    19    20   ar
    22    19    18   ar
    23    32    31   ar
    24    32    28   ar
    25    25    20    1
    26    20    21   ar
    27    15     7    1
    28     7     4   ar
    29     7     6   ar
    30    18     4    1
    31    18    22   ar
    32     4     2   ar
    33     6     8    1
    34     6     3   ar
    35     2     1   ar
    36     2     5    1
    37     3     1   ar
    38     3     9    1
    39     1    10    1
    40    10    11    1
    41    11    12    1
    42    11    13    1
    43    21    22   ar
    44    21    28    1
    45    31    30   ar
    46    28    29   ar
    47    30    29   ar
    48    30    38    1
    49    29    34    1
    50    40    38    1
    51    39    38    1
    52    36    34    1
    53    34    37    1
    54    34    35    1
