@<TRIPOS>MOLECULE
mol_data/noopt/geoms/mol2/4lh12ee-6hd-13ai.out
 52 55 0 0 0
SMALL
GASTEIGER

@<TRIPOS>ATOM
      1 C           0.0509    0.0309    0.0002 C.ar    1  LIG1        0.1209
      2 C           1.4592    0.0309    0.0002 C.ar    1  LIG1       -0.0075
      3 C          -0.6045    1.2792    0.0002 C.ar    1  LIG1       -0.0182
      4 C           2.1849    1.2200   -0.0004 C.ar    1  LIG1        0.0426
      5 H           1.9850   -0.9213    0.0004 H       1  LIG1        0.0662
      6 C           0.1195    2.4666   -0.0004 C.ar    1  LIG1       -0.0369
      7 C           1.5181    2.4458   -0.0008 C.ar    1  LIG1        0.0356
      8 H          -0.4090    3.4165   -0.0003 H       1  LIG1        0.0637
      9 H          -1.9035    1.3287    0.0016 H       1  LIG1        0.0655
     10 O          -0.5709   -1.1108    0.0005 O.3     1  LIG1       -0.4951
     11 C          -1.9830   -0.8853    0.0005 C.3     1  LIG1        0.0788
     12 H          -2.4943   -1.8252    0.0006 H       1  LIG1        0.0660
     13 H          -2.2556   -0.3309    0.8742 H       1  LIG1        0.0660
     14 H          -2.2557   -0.3310   -0.8731 H       1  LIG1        0.0660
     15 N           2.1896    3.5590   -0.0012 N.pl3   1  LIG1       -0.3574
     16 H           3.0608    3.4225   -0.4727 H       1  LIG1        0.1423
     17 H           1.6626    4.2660   -0.4727 H       1  LIG1        0.1423
     18 C           3.4844    1.1831   -0.0005 C.ar    1  LIG1        0.1541
     19 C           4.4399    0.1882    0.0142 C.ar    1  LIG1        0.0864
     20 C           5.7279    0.8500    0.0034 C.ar    1  LIG1        0.0865
     21 C           5.4738    2.2059   -0.0172 C.ar    1  LIG1        0.1555
     22 O           4.0977    2.4365   -0.0202 O.2     1  LIG1       -0.4521
     23 C           4.2495   -1.0976    0.0341 C.1     1  LIG1       -0.0646
     24 C           4.0736   -2.2857    0.0524 C.1     1  LIG1       -0.1138
     25 H           3.9169   -3.3441    0.0687 H       1  LIG1        0.1232
     26 C           6.8846    0.2567    0.0119 C.1     1  LIG1       -0.0646
     27 C           7.9534   -0.2915    0.0198 C.1     1  LIG1       -0.1138
     28 H           8.9054   -0.7799    0.0267 H       1  LIG1        0.1232
     29 C           5.5901    4.5517   -0.0643 C.ar    1  LIG1        0.1277
     30 C           6.1999    3.2842   -0.0341 C.ar    1  LIG1        0.0593
     31 C           7.5942    3.2152   -0.0224 C.ar    1  LIG1       -0.0282
     32 C           8.3259    4.4038   -0.0414 C.ar    1  LIG1        0.0799
     33 C           7.6251    5.6235   -0.0715 C.ar    1  LIG1        0.1065
     34 N           6.2805    5.7083   -0.0829 N.ar    1  LIG1       -0.2290
     35 H           8.1061    2.2428    0.0001 H       1  LIG1        0.0639
     36 N           4.2952    4.6673   -0.0761 N.pl3   1  LIG1       -0.3426
     37 H           4.0401    5.5098   -0.5505 H       1  LIG1        0.1437
     38 H           3.8949    3.8833   -0.5505 H       1  LIG1        0.1437
     39 N          10.7724    4.3834   -0.0234 N.1     1  LIG1       -0.1908
     40 C           9.6258    4.3930   -0.0318 C.1     1  LIG1        0.1014
     41 C           8.2619    6.7567   -0.0899 C.ar    1  LIG1        0.0665
     42 C           9.5957    7.0189   -0.0862 C.ar    1  LIG1       -0.0320
     43 C           9.7518    8.4422   -0.1125 C.ar    1  LIG1       -0.0325
     44 C           8.5065    8.9870   -0.1330 C.ar    1  LIG1        0.0051
     45 N           7.5914    7.9586   -0.1188 N.ar    1  LIG1       -0.3592
     46 H           6.6033    8.0668   -0.1285 H       1  LIG1        0.1654
     47 H           8.1304   10.2311   -0.1603 H       1  LIG1        0.0809
     48 H          10.5508    6.1374   -0.0615 H       1  LIG1        0.0642
     49 C          10.8756    9.0964   -0.1167 C.3     1  LIG1       -0.0383
     50 H          10.7457   10.0316    0.3866 H       1  LIG1        0.0278
     51 H          11.1810    9.2742   -1.1267 H       1  LIG1        0.0278
     52 H          11.6248    8.5215    0.3865 H       1  LIG1        0.0278
@<TRIPOS>BOND
     1    51    49    1
     2    14    11    1
     3    38    36    1
     4    37    36    1
     5    17    15    1
     6    16    15    1
     7    47    44    1
     8    44    45   ar
     9    44    43   ar
    10    46    45    1
    11    45    41   ar
    12    49    43    1
    13    49    52    1
    14    49    50    1
    15    43    42   ar
    16    41    42   ar
    17    41    33    1
    18    42    48    1
    19    34    33   ar
    20    34    29   ar
    21    36    29    1
    22    33    32   ar
    23    29    30   ar
    24    32    40    1
    25    32    31   ar
    26    30    31   ar
    27    30    21    1
    28    40    39    3
    29    31    35    1
    30    22    21   ar
    31    22    18   ar
    32    21    20   ar
    33    15     7    1
    34     7     4   ar
    35     7     6   ar
    36    18     4    1
    37    18    19   ar
    38     4     2   ar
    39     6     8    1
    40     6     3   ar
    41     3     1   ar
    42     3     9    1
    43     2     1   ar
    44     2     5    1
    45     1    10    1
    46    10    11    1
    47    11    12    1
    48    11    13    1
    49    20    26    1
    50    20    19   ar
    51    26    27    3
    52    19    23    1
    53    27    28    1
    54    23    24    3
    55    24    25    1
