@<TRIPOS>MOLECULE
mol_data/noopt/geoms/mol2/4li.out
 19 19 0 0 0
SMALL
GASTEIGER

@<TRIPOS>ATOM
      1 C           0.0509    0.0309    0.0002 C.ar    1  LIG1        0.1201
      2 C           1.4592    0.0309    0.0002 C.ar    1  LIG1       -0.0197
      3 C          -0.6045    1.2792    0.0002 C.ar    1  LIG1       -0.0197
      4 C           2.1849    1.2200   -0.0004 C.ar    1  LIG1       -0.0554
      5 H           1.9850   -0.9213    0.0004 H       1  LIG1        0.0654
      6 C           0.1195    2.4666   -0.0004 C.ar    1  LIG1       -0.0554
      7 C           1.5181    2.4458   -0.0008 C.ar    1  LIG1       -0.0502
      8 H          -0.4090    3.4165   -0.0003 H       1  LIG1        0.0621
      9 H           3.4844    1.1831   -0.0005 H       1  LIG1        0.0621
     10 H          -1.9035    1.3287    0.0016 H       1  LIG1        0.0654
     11 O          -0.5709   -1.1108    0.0005 O.3     1  LIG1       -0.4951
     12 C          -1.9830   -0.8853    0.0005 C.3     1  LIG1        0.0788
     13 H          -2.4943   -1.8252    0.0006 H       1  LIG1        0.0660
     14 H          -2.2556   -0.3309    0.8742 H       1  LIG1        0.0660
     15 H          -2.2557   -0.3310   -0.8731 H       1  LIG1        0.0660
     16 C           2.1897    3.5592   -0.0012 C.3     1  LIG1       -0.0397
     17 H           1.6260    4.3160    0.5031 H       1  LIG1        0.0278
     18 H           2.3738    3.8644   -1.0102 H       1  LIG1        0.0278
     19 H           3.1221    3.4135    0.5030 H       1  LIG1        0.0278
@<TRIPOS>BOND
     1    18    16    1
     2    15    12    1
     3    16     7    1
     4    16    19    1
     5    16    17    1
     6     7     4   ar
     7     7     6   ar
     8     9     4    1
     9     4     2   ar
    10     6     8    1
    11     6     3   ar
    12     2     1   ar
    13     2     5    1
    14     3     1   ar
    15     3    10    1
    16     1    11    1
    17    11    12    1
    18    12    13    1
    19    12    14    1
