@<TRIPOS>MOLECULE
mol_data/noopt/geoms/mol2/4li12ll12fl13ia.out
 57 59 0 0 0
SMALL
GASTEIGER

@<TRIPOS>ATOM
      1 C           0.0509    0.0309    0.0002 C.ar    1  LIG1        0.1286
      2 C           1.4592    0.0309    0.0002 C.ar    1  LIG1        0.0390
      3 C          -0.6045    1.2792    0.0002 C.ar    1  LIG1       -0.0191
      4 C           2.1849    1.2200   -0.0004 C.ar    1  LIG1        0.0355
      5 H           1.9850   -0.9213    0.0004 H       1  LIG1        0.0194
      6 C           0.1195    2.4666   -0.0004 C.ar    1  LIG1       -0.0547
      7 C           1.5181    2.4458   -0.0008 C.ar    1  LIG1       -0.0389
      8 H          -0.4090    3.4165   -0.0003 H       1  LIG1        0.0622
      9 H          -1.9035    1.3287    0.0016 H       1  LIG1        0.0654
     10 O          -0.5709   -1.1108    0.0005 O.3     1  LIG1       -0.4945
     11 C          -1.9830   -0.8853    0.0005 C.3     1  LIG1        0.0788
     12 H          -2.4943   -1.8252    0.0006 H       1  LIG1        0.0660
     13 H          -2.2556   -0.3309    0.8742 H       1  LIG1        0.0660
     14 H          -2.2557   -0.3310   -0.8731 H       1  LIG1        0.0660
     15 C           2.1897    3.5592   -0.0012 C.3     1  LIG1       -0.0390
     16 H           1.6260    4.3160    0.5031 H       1  LIG1        0.0278
     17 H           2.3738    3.8644   -1.0102 H       1  LIG1        0.0278
     18 H           3.1221    3.4135    0.5030 H       1  LIG1        0.0278
     19 C           3.4844    1.1831   -0.0005 C.ar    1  LIG1        0.1871
     20 C           4.4399    0.1881   -0.0006 C.ar    1  LIG1        0.2665
     21 C           5.7279    0.8499   -0.0007 C.ar    1  LIG1        0.2169
     22 C           5.4738    2.2061   -0.0008 C.ar    1  LIG1        0.2197
     23 O           4.0977    2.4367   -0.0007 O.2     1  LIG1       -0.4438
     24 O           4.2495   -1.0979   -0.0005 O.3     1  LIG1       -0.2799
     25 C           2.8461   -1.3726   -0.0005 C.3     2  LIG2       -0.0776
     26 H           2.6899   -2.4312   -0.0006 H       1  LIG1        0.0194
     27 H           2.3992   -0.9462    0.8732 H       1  LIG1        0.0194
     28 H           2.3992   -0.9461   -0.8741 H       1  LIG1        0.0194
     29 O           6.8846    0.2566   -0.0008 O.3     1  LIG1       -0.4882
     30 C           6.6940   -1.1607   -0.0009 C.3     1  LIG1        0.0791
     31 H           7.6463   -1.6487   -0.0011 H       1  LIG1        0.0660
     32 H           6.1467   -1.4471    0.8729 H       1  LIG1        0.0660
     33 H           6.1464   -1.4469   -0.8744 H       1  LIG1        0.0660
     34 C           6.1999    3.2844   -0.0008 C.ar    1  LIG1        0.2194
     35 C           7.5515    3.5599    0.0139 C.ar    1  LIG1        0.2093
     36 C           7.6810    5.0021    0.0032 C.ar    1  LIG1        0.2099
     37 C           6.3993    5.5125   -0.0175 C.ar    1  LIG1        0.1973
     38 O           5.4687    4.4730   -0.0205 O.2     1  LIG1       -0.4425
     39 O           8.5363    2.7115    0.0338 O.3     1  LIG1       -0.5007
     40 H           9.3697    3.1879    0.0387 H       1  LIG1        0.2924
     41 O           8.8009    5.6624    0.0117 O.3     1  LIG1       -0.4884
     42 C           9.8966    4.7435    0.0148 C.3     1  LIG1        0.0791
     43 H          10.8181    5.2873    0.0216 H       1  LIG1        0.0660
     44 H           9.8410    4.1250    0.8862 H       1  LIG1        0.0660
     45 H           9.8507    4.1307   -0.8611 H       1  LIG1        0.0660
     46 C           5.8764    6.7026   -0.0343 C.ar    1  LIG1        0.0889
     47 C           6.4687    7.9261   -0.0461 C.ar    1  LIG1       -0.0221
     48 C           5.4249    8.9064   -0.0618 C.ar    1  LIG1       -0.0408
     49 C           4.2407    8.2388   -0.0607 C.ar    1  LIG1        0.0025
     50 N           4.5125    6.8893   -0.0434 N.ar    1  LIG1       -0.3580
     51 H           3.8320    6.1648   -0.0390 H       1  LIG1        0.1654
     52 H           3.0202    8.6861   -0.0718 H       1  LIG1        0.0807
     53 C           7.7479    8.1594   -0.0421 C.3     1  LIG1       -0.0376
     54 H           7.9405    9.0826    0.4634 H       1  LIG1        0.0278
     55 H           8.1018    8.2240   -1.0499 H       1  LIG1        0.0278
     56 H           8.2540    7.3636    0.4633 H       1  LIG1        0.0278
     57 H           5.5776   10.1973   -0.0752 H       1  LIG1        0.0635
@<TRIPOS>BOND
     1    55    53    1
     2    17    15    1
     3    33    30    1
     4    28    25    1
     5    14    11    1
     6    45    42    1
     7    57    48    1
     8    52    49    1
     9    48    49   ar
    10    48    47   ar
    11    49    50   ar
    12    47    53    1
    13    47    46   ar
    14    50    51    1
    15    50    46   ar
    16    53    56    1
    17    53    54    1
    18    46    37    1
    19    38    37   ar
    20    38    34   ar
    21    37    36   ar
    22    15     7    1
    23    15    18    1
    24    15    16    1
    25    31    30    1
    26    30    29    1
    27    30    32    1
    28    34    22    1
    29    34    35   ar
    30     7     4   ar
    31     7     6   ar
    32    29    21    1
    33    22    23   ar
    34    22    21   ar
    35    23    19   ar
    36    21    20   ar
    37    20    19   ar
    38    20    24    1
    39    26    25    1
    40    19     4    1
    41    25     5    1
    42    25    27    1
    43     4     2   ar
    44     6     8    1
    45     6     3   ar
    46     2     1   ar
    47     3     1   ar
    48     3     9    1
    49     1    10    1
    50    10    11    1
    51    11    12    1
    52    11    13    1
    53    36    41    1
    54    36    35   ar
    55    41    42    1
    56    35    39    1
    57    42    43    1
    58    42    44    1
    59    39    40    1
