@<TRIPOS>MOLECULE
mol_data/noopt/geoms/mol2/4li12de(340)13ae(290)6il(80).out
 55 58 0 0 0
SMALL
GASTEIGER

@<TRIPOS>ATOM
      1 C           0.0509    0.0309    0.0002 C.ar    1  LIG1        0.1208
      2 C           1.4592    0.0309    0.0002 C.ar    1  LIG1       -0.0090
      3 C          -0.6045    1.2792    0.0002 C.ar    1  LIG1       -0.0197
      4 C           2.1849    1.2200   -0.0004 C.ar    1  LIG1        0.0250
      5 H           1.9850   -0.9213    0.0004 H       1  LIG1        0.0661
      6 C           0.1195    2.4666   -0.0004 C.ar    1  LIG1       -0.0547
      7 C           1.5181    2.4458   -0.0008 C.ar    1  LIG1       -0.0395
      8 H          -0.4090    3.4165   -0.0003 H       1  LIG1        0.0622
      9 H          -1.9035    1.3287    0.0016 H       1  LIG1        0.0654
     10 O          -0.5709   -1.1108    0.0005 O.3     1  LIG1       -0.4951
     11 C          -1.9830   -0.8853    0.0005 C.3     1  LIG1        0.0788
     12 H          -2.4943   -1.8252    0.0006 H       1  LIG1        0.0660
     13 H          -2.2556   -0.3309    0.8742 H       1  LIG1        0.0660
     14 H          -2.2557   -0.3310   -0.8731 H       1  LIG1        0.0660
     15 C           2.1897    3.5592   -0.0012 C.3     1  LIG1       -0.0390
     16 H           1.6260    4.3160    0.5031 H       1  LIG1        0.0278
     17 H           2.3738    3.8644   -1.0102 H       1  LIG1        0.0278
     18 H           3.1221    3.4135    0.5030 H       1  LIG1        0.0278
     19 C           3.4844    1.1831   -0.0005 C.ar    1  LIG1        0.1547
     20 C           4.4412    0.2338   -0.2945 C.ar    1  LIG1        0.1134
     21 C           5.7282    0.8627   -0.0825 C.ar    1  LIG1        0.0898
     22 C           5.4724    2.1551    0.3270 C.ar    1  LIG1        0.1684
     23 O           4.0961    2.3767    0.3852 O.2     1  LIG1       -0.4508
     24 N           4.0861   -2.0717   -1.0322 N.1     1  LIG1       -0.1907
     25 C           4.2525   -0.9912   -0.6865 C.1     1  LIG1        0.1042
     26 C           6.8857    0.2958   -0.2528 C.1     1  LIG1       -0.0645
     27 C           7.9551   -0.2280   -0.4101 C.1     1  LIG1       -0.1138
     28 H           8.9078   -0.6946   -0.5503 H       1  LIG1        0.1232
     29 C           6.1970    3.1816    0.6607 C.ar    1  LIG1        0.0850
     30 C           7.1415    3.8605   -0.0428 C.ar    1  LIG1       -0.0173
     31 C           7.6309    4.9096    0.8001 C.ar    1  LIG1        0.0506
     32 C           6.9627    4.8267    1.9811 C.ar    1  LIG1        0.0644
     33 N           6.0842    3.7698    1.9002 N.ar    1  LIG1       -0.3507
     34 H           5.4660    3.4782    2.6219 H       1  LIG1        0.1660
     35 H           7.5278    3.6012   -1.2567 H       1  LIG1        0.0652
     36 C           8.5450    5.7824    0.4957 C.1     1  LIG1       -0.0675
     37 C           9.3896    6.5888    0.2144 C.1     1  LIG1       -0.1138
     38 H          10.1419    7.3072   -0.0361 H       1  LIG1        0.1232
     39 C           7.0186    6.9573    2.9688 C.ar    1  LIG1        0.0476
     40 C           7.0543    5.5535    3.0550 C.ar    1  LIG1        0.0240
     41 C           7.1895    4.9661    4.3143 C.ar    1  LIG1       -0.0076
     42 C           7.2837    5.7931    5.4349 C.ar    1  LIG1        0.1387
     43 C           7.2383    7.1867    5.2468 C.ar    1  LIG1        0.0695
     44 N           7.1081    7.7702    4.0394 N.ar    1  LIG1       -0.2559
     45 H           7.2222    3.8726    4.4209 H       1  LIG1        0.0662
     46 H           7.3221    7.9979    6.2591 H       1  LIG1        0.0867
     47 C           6.8939    7.5507    1.8185 C.3     1  LIG1       -0.0217
     48 H           5.9130    7.9706    1.7382 H       1  LIG1        0.0293
     49 H           7.0431    6.8401    1.0326 H       1  LIG1        0.0293
     50 H           7.6230    8.3297    1.7382 H       1  LIG1        0.0293
     51 O           7.4109    5.2950    6.6290 O.3     1  LIG1       -0.4936
     52 C           6.1515    4.7785    7.0673 C.3     1  LIG1        0.0789
     53 H           6.2567    4.3685    8.0500 H       1  LIG1        0.0660
     54 H           5.4292    5.5678    7.0856 H       1  LIG1        0.0660
     55 H           5.8263    4.0129    6.3944 H       1  LIG1        0.0660
@<TRIPOS>BOND
     1    35    30    1
     2    24    25    3
     3    17    15    1
     4    14    11    1
     5    25    20    1
     6    28    27    1
     7    27    26    3
     8    20    21   ar
     9    20    19   ar
    10    26    21    1
    11    21    22   ar
    12    30    29   ar
    13    30    31   ar
    14    38    37    1
    15    15     7    1
    16    15    18    1
    17    15    16    1
    18     7     6   ar
    19     7     4   ar
    20    19     4    1
    21    19    23   ar
    22     6     8    1
    23     6     3   ar
    24     4     2   ar
    25     1     2   ar
    26     1     3   ar
    27     1    10    1
    28     2     5    1
    29     3     9    1
    30    10    11    1
    31    11    12    1
    32    11    13    1
    33    37    36    3
    34    22    23   ar
    35    22    29    1
    36    36    31    1
    37    29    33   ar
    38    31    32   ar
    39    49    47    1
    40    48    47    1
    41    50    47    1
    42    47    39    1
    43    33    32   ar
    44    33    34    1
    45    32    40    1
    46    39    40   ar
    47    39    44   ar
    48    40    41   ar
    49    44    43   ar
    50    41    45    1
    51    41    42   ar
    52    43    42   ar
    53    43    46    1
    54    42    51    1
    55    55    52    1
    56    51    52    1
    57    52    54    1
    58    52    53    1
