@<TRIPOS>MOLECULE
mol_data/noopt/geoms/mol2/4li12ih(330)4da(210)12lh(180).out
 55 58 0 0 0
SMALL
GASTEIGER

@<TRIPOS>ATOM
      1 C           0.0509    0.0309    0.0002 C.ar    1  LIG1        0.1208
      2 C           1.4592    0.0309    0.0002 C.ar    1  LIG1       -0.0090
      3 C          -0.6045    1.2792    0.0002 C.ar    1  LIG1       -0.0197
      4 C           2.1849    1.2200   -0.0004 C.ar    1  LIG1        0.0240
      5 H           1.9850   -0.9213    0.0004 H       1  LIG1        0.0661
      6 C           0.1195    2.4666   -0.0004 C.ar    1  LIG1       -0.0547
      7 C           1.5181    2.4458   -0.0008 C.ar    1  LIG1       -0.0396
      8 H          -0.4090    3.4165   -0.0003 H       1  LIG1        0.0622
      9 H          -1.9035    1.3287    0.0016 H       1  LIG1        0.0654
     10 O          -0.5709   -1.1108    0.0005 O.3     1  LIG1       -0.4951
     11 C          -1.9830   -0.8853    0.0005 C.3     1  LIG1        0.0788
     12 H          -2.4943   -1.8252    0.0006 H       1  LIG1        0.0660
     13 H          -2.2556   -0.3309    0.8742 H       1  LIG1        0.0660
     14 H          -2.2557   -0.3310   -0.8731 H       1  LIG1        0.0660
     15 C           2.1897    3.5592   -0.0012 C.3     1  LIG1       -0.0390
     16 H           1.6260    4.3160    0.5031 H       1  LIG1        0.0278
     17 H           2.3738    3.8644   -1.0102 H       1  LIG1        0.0278
     18 H           3.1221    3.4135    0.5030 H       1  LIG1        0.0278
     19 C           3.4844    1.1831   -0.0005 C.ar    1  LIG1        0.1408
     20 C           4.4428    0.2922   -0.4372 C.ar    1  LIG1        0.0166
     21 C           5.7287    0.8789   -0.1222 C.ar    1  LIG1        0.0746
     22 C           5.4706    2.0900    0.4862 C.ar    1  LIG1        0.1577
     23 O           4.0939    2.3001    0.5727 O.2     1  LIG1       -0.4526
     24 C           4.2563   -0.8552   -1.0198 C.3     1  LIG1       -0.0343
     25 H           5.0312   -1.5332   -0.7287 H       1  LIG1        0.0279
     26 H           4.2777   -0.7238   -2.0816 H       1  LIG1        0.0279
     27 H           3.3065   -1.2528   -0.7287 H       1  LIG1        0.0279
     28 N           6.8871    0.3458   -0.3752 N.pl3   1  LIG1       -0.3548
     29 H           6.7594   -0.4942   -0.9024 H       1  LIG1        0.1424
     30 H           7.4421    0.9892   -0.9025 H       1  LIG1        0.1424
     31 C           5.8785    4.3918    0.6842 C.ar    1  LIG1        0.0631
     32 C           6.6927    5.3951    1.2444 C.ar    1  LIG1       -0.0329
     33 C           6.1933    3.0501    0.9819 C.ar    1  LIG1        0.0365
     34 C           7.7727    5.0788    2.0656 C.ar    1  LIG1        0.0222
     35 H           6.4677    6.4369    1.0274 H       1  LIG1        0.0638
     36 C           7.2713    2.7338    1.8016 C.ar    1  LIG1       -0.0491
     37 C           8.0681    3.7448    2.3490 C.ar    1  LIG1       -0.0502
     38 H           7.4936    1.6917    2.0163 H       1  LIG1        0.0625
     39 N           4.0084    5.0639   -0.7429 N.1     1  LIG1       -0.1908
     40 C           4.8848    4.7490   -0.0741 C.1     1  LIG1        0.0999
     41 H           9.0746    3.4431    3.1144 H       1  LIG1        0.0625
     42 C           8.5034    6.0304    2.5660 C.ar    1  LIG1        0.1781
     43 C           8.2889    7.3394    2.9447 C.ar    1  LIG1        0.1863
     44 C           9.5557    7.8429    3.4331 C.ar    1  LIG1        0.1058
     45 C          10.4607    6.8076    3.3206 C.ar    1  LIG1        0.1169
     46 O           9.8357    5.6793    2.7886 O.2     1  LIG1       -0.4573
     47 H          11.7228    6.6474    3.5882 H       1  LIG1        0.1050
     48 O           7.1786    8.0131    2.8854 O.3     1  LIG1       -0.4896
     49 C           7.4702    9.4129    2.8635 C.3     1  LIG1        0.0791
     50 H           6.5561    9.9670    2.8146 H       1  LIG1        0.0660
     51 H           8.0022    9.6803    3.7526 H       1  LIG1        0.0660
     52 H           8.0705    9.6388    2.0072 H       1  LIG1        0.0660
     53 N           9.7707    9.0429    3.8847 N.pl3   1  LIG1       -0.3527
     54 H          10.6584    9.3677    3.5585 H       1  LIG1        0.1425
     55 H           9.0511    9.6557    3.5585 H       1  LIG1        0.1425
@<TRIPOS>BOND
     1    26    24    1
     2    24    27    1
     3    24    25    1
     4    24    20    1
     5    17    15    1
     6    30    28    1
     7    29    28    1
     8    14    11    1
     9    39    40    3
    10    20    21   ar
    11    20    19   ar
    12    28    21    1
    13    21    22   ar
    14    40    31    1
    15    15     7    1
    16    15    18    1
    17    15    16    1
    18     7     6   ar
    19     7     4   ar
    20    19     4    1
    21    19    23   ar
    22     6     8    1
    23     6     3   ar
    24     4     2   ar
    25     1     3   ar
    26     1     2   ar
    27     1    10    1
    28     3     9    1
    29     2     5    1
    30    10    11    1
    31    11    12    1
    32    11    13    1
    33    22    23   ar
    34    22    33    1
    35    31    33   ar
    36    31    32   ar
    37    33    36   ar
    38    35    32    1
    39    32    34   ar
    40    36    38    1
    41    36    37   ar
    42    52    49    1
    43    34    37   ar
    44    34    42    1
    45    37    41    1
    46    42    46   ar
    47    42    43   ar
    48    46    45   ar
    49    50    49    1
    50    49    48    1
    51    49    51    1
    52    48    43    1
    53    43    44   ar
    54    45    44   ar
    55    45    47    1
    56    44    53    1
    57    55    53    1
    58    54    53    1
