@<TRIPOS>MOLECULE
mol_data/noopt/geoms/mol2/4li13ee(60)12fd(240)12ia(340).out
 50 53 0 0 0
SMALL
GASTEIGER

@<TRIPOS>ATOM
      1 C           0.0509    0.0309    0.0002 C.ar    1  LIG1        0.1207
      2 C           1.4592    0.0309    0.0002 C.ar    1  LIG1       -0.0106
      3 C          -0.6045    1.2792    0.0002 C.ar    1  LIG1       -0.0197
      4 C           2.1849    1.2200   -0.0004 C.ar    1  LIG1        0.0059
      5 H           1.9850   -0.9213    0.0004 H       1  LIG1        0.0661
      6 C           0.1195    2.4666   -0.0004 C.ar    1  LIG1       -0.0548
      7 C           1.5181    2.4458   -0.0008 C.ar    1  LIG1       -0.0411
      8 H          -0.4090    3.4165   -0.0003 H       1  LIG1        0.0622
      9 H          -1.9035    1.3287    0.0016 H       1  LIG1        0.0654
     10 O          -0.5709   -1.1108    0.0005 O.3     1  LIG1       -0.4951
     11 C          -1.9830   -0.8853    0.0005 C.3     1  LIG1        0.0788
     12 H          -2.4943   -1.8252    0.0006 H       1  LIG1        0.0660
     13 H          -2.2556   -0.3309    0.8742 H       1  LIG1        0.0660
     14 H          -2.2557   -0.3310   -0.8731 H       1  LIG1        0.0660
     15 C           2.1897    3.5592   -0.0012 C.3     1  LIG1       -0.0391
     16 H           1.6260    4.3160    0.5031 H       1  LIG1        0.0278
     17 H           2.3738    3.8644   -1.0102 H       1  LIG1        0.0278
     18 H           3.1221    3.4135    0.5030 H       1  LIG1        0.0278
     19 C           3.4844    1.1831   -0.0005 C.ar    1  LIG1        0.0642
     20 C           4.3504    0.6080    0.8754 C.ar    1  LIG1        0.0660
     21 C           5.6758    0.8700    0.4007 C.ar    1  LIG1        0.0690
     22 C           5.5614    1.5921   -0.7454 C.ar    1  LIG1        0.1030
     23 N           4.2214    1.7865   -0.9944 N.ar    1  LIG1       -0.3497
     24 H           3.8458    2.2830   -1.7692 H       1  LIG1        0.1661
     25 C           4.0306   -0.0554    1.9466 C.1     1  LIG1       -0.0663
     26 C           3.7350   -0.6685    2.9364 C.1     1  LIG1       -0.1138
     27 H           3.4718   -1.2146    3.8181 H       1  LIG1        0.1232
     28 C           6.7860    0.4888    0.9594 C.1     1  LIG1       -0.0662
     29 C           7.8118    0.1367    1.4758 C.1     1  LIG1       -0.1138
     30 H           8.7256   -0.1770    1.9357 H       1  LIG1        0.1232
     31 C           6.4757    2.0652   -1.5392 C.ar    1  LIG1        0.1956
     32 C           6.4847    2.6693   -2.7794 C.ar    1  LIG1        0.1827
     33 C           7.8697    2.9533   -3.0924 C.ar    1  LIG1        0.1425
     34 C           8.6155    2.5039   -2.0222 C.ar    1  LIG1        0.1919
     35 O           7.7785    1.9523   -1.0517 O.2     1  LIG1       -0.4451
     36 O           5.4655    2.9417   -3.5391 O.3     1  LIG1       -0.5023
     37 H           4.9806    2.1346   -3.7263 H       1  LIG1        0.2923
     38 N           8.6783    4.0251   -5.1377 N.1     1  LIG1       -0.1906
     39 C           8.2993    3.5228   -4.1792 C.1     1  LIG1        0.1068
     40 C           9.8797    2.4773   -1.7203 C.ar    1  LIG1        0.1740
     41 C          10.8848    1.5342   -1.7778 C.ar    1  LIG1       -0.0016
     42 C          12.0833    2.1742   -1.2768 C.ar    1  LIG1       -0.0203
     43 C          11.7308    3.4666   -0.9465 C.ar    1  LIG1        0.0930
     44 O          10.3772    3.6776   -1.2110 O.2     1  LIG1       -0.4595
     45 H          12.3513    4.5004   -0.4604 H       1  LIG1        0.1029
     46 C          10.8004    0.3055   -2.1949 C.3     1  LIG1       -0.0360
     47 H          11.6377   -0.2529   -1.8315 H       1  LIG1        0.0279
     48 H          10.7995    0.2913   -3.2648 H       1  LIG1        0.0279
     49 H           9.8945   -0.1330   -1.8316 H       1  LIG1        0.0279
     50 H          13.2523    1.6157   -1.1699 H       1  LIG1        0.0652
@<TRIPOS>BOND
     1    38    39    3
     2    39    33    1
     3    37    36    1
     4    36    32    1
     5    48    46    1
     6    33    32   ar
     7    33    34   ar
     8    32    31   ar
     9    46    49    1
    10    46    47    1
    11    46    41    1
    12    34    40    1
    13    34    35   ar
    14    41    40   ar
    15    41    42   ar
    16    24    23    1
    17    40    44   ar
    18    31    35   ar
    19    31    22    1
    20    42    50    1
    21    42    43   ar
    22    44    43   ar
    23    17    15    1
    24    23    22   ar
    25    23    19   ar
    26    43    45    1
    27    14    11    1
    28    22    21   ar
    29    15     7    1
    30    15    18    1
    31    15    16    1
    32     7     6   ar
    33     7     4   ar
    34    19     4    1
    35    19    20   ar
    36     6     8    1
    37     6     3   ar
    38     4     2   ar
    39     1     2   ar
    40     1     3   ar
    41     1    10    1
    42     2     5    1
    43     3     9    1
    44    10    11    1
    45    11    12    1
    46    11    13    1
    47    21    20   ar
    48    21    28    1
    49    20    25    1
    50    28    29    3
    51    29    30    1
    52    25    26    3
    53    26    27    1
