@<TRIPOS>MOLECULE
mol_data/noopt/geoms/mol2/4li4li4li4li.out
 70 67 0 0 0
SMALL
GASTEIGER

@<TRIPOS>ATOM
      1 C           0.0509    0.0309    0.0002 C.2     1  LIG1        0.1615
      2 C           1.4592    0.0309    0.0002 C.3     2  LIG2       -0.0681
      3 C          -0.6045    1.2792    0.0002 C.2     1  LIG1       -0.0160
      4 C           2.1849    1.2200   -0.0004 C.2     1  LIG1       -0.0082
      5 H           1.9850   -0.9213    0.0004 H       1  LIG1        0.0227
      6 C           0.1195    2.4666   -0.0004 C.2     1  LIG1       -0.0547
      7 C           1.5181    2.4458   -0.0008 C.2     1  LIG1       -0.0423
      8 H          -0.4090    3.4165   -0.0003 H       1  LIG1        0.0622
      9 H          -1.9035    1.3287    0.0016 H       1  LIG1        0.0655
     10 O          -0.5709   -1.1108    0.0005 O.2     1  LIG1       -0.4915
     11 C          -1.9830   -0.8853    0.0005 C.3     1  LIG1        0.0790
     12 H          -2.4943   -1.8252    0.0006 H       1  LIG1        0.0660
     13 H          -2.2556   -0.3309    0.8742 H       1  LIG1        0.0660
     14 H          -2.2557   -0.3310   -0.8731 H       1  LIG1        0.0660
     15 C           2.1897    3.5592   -0.0012 C.3     1  LIG1       -0.0391
     16 H           1.6260    4.3160    0.5031 H       1  LIG1        0.0278
     17 H           2.3738    3.8644   -1.0102 H       1  LIG1        0.0278
     18 H           3.1221    3.4135    0.5030 H       1  LIG1        0.0278
     19 C           4.1518   -0.0588    0.0002 C.3     1  LIG1        0.1675
     20 C           5.5600   -0.0451    0.0016 C.3     3  LIG3       -0.0681
     21 C           3.4843    1.1831   -0.0005 C.2     1  LIG1       -0.0012
     22 C           6.2742    1.1510    0.0017 C.2     1  LIG1       -0.0119
     23 H           6.0950   -0.9922    0.0024 H       2  LIG2        0.0227
     24 C           4.1968    2.3775   -0.0004 C.2     1  LIG1       -0.0515
     25 C           5.5955    2.3702    0.0006 C.2     1  LIG1       -0.0423
     26 H           3.6591    3.3222   -0.0009 H       1  LIG1        0.0624
     27 O           3.5411   -1.2065   -0.0001 O.3     1  LIG1       -0.3535
     28 C           2.1269   -0.9946   -0.0003 C.3     1  LIG1        0.1173
     29 H           1.6247   -1.9395   -0.0006 H       1  LIG1        0.0650
     30 H           1.8487   -0.4432    0.8736 H       1  LIG1        0.0227
     31 H           1.8490   -0.4427   -0.8737 H       1  LIG1        0.0227
     32 C           6.2563    3.4901    0.0008 C.3     1  LIG1       -0.0391
     33 H           5.6851    4.2412    0.5053 H       1  LIG1        0.0278
     34 H           6.4376    3.7975   -1.0080 H       1  LIG1        0.0278
     35 H           7.1900    3.3532    0.5052 H       1  LIG1        0.0278
     36 C           8.2534   -0.1087    0.0043 C.3     1  LIG1        0.1639
     37 C           9.6614   -0.0814    0.0071 C.3     4  LIG4       -0.0531
     38 C           7.5739    1.1267    0.0029 C.2     1  LIG1       -0.0158
     39 C          10.3639    1.1216    0.0079 C.2     1  LIG1       -0.0070
     40 H          10.2056   -1.0232    0.0084 H       3  LIG3        0.0265
     41 C           8.2747    2.3279    0.0036 C.3     1  LIG1        0.0159
     42 C           9.6734    2.3342    0.0060 C.2     1  LIG1       -0.0562
     43 H           7.7279    3.2674    0.0026 H       1  LIG1        0.0401
     44 O           7.6539   -1.2622    0.0034 O.3     1  LIG1       -0.3538
     45 C           6.2377   -1.0641    0.0031 C.3     1  LIG1        0.1173
     46 H           5.7446   -2.0138    0.0022 H       1  LIG1        0.0650
     47 H           5.9540   -0.5158    0.8770 H       2  LIG2        0.0227
     48 H           5.9546   -0.5145   -0.8703 H       2  LIG2        0.0227
     49 C          10.3234    3.4605    0.0069 C.3     1  LIG1       -0.0423
     50 H           9.7448    4.2058    0.5116 H       1  LIG1        0.0275
     51 H          10.5019    3.7700   -1.0017 H       1  LIG1        0.0275
     52 H          11.2582    3.3324    0.5115 H       1  LIG1        0.0275
     53 C          12.3552   -0.1188    0.0125 C.ar    1  LIG1        0.1284
     54 C          13.7629   -0.0778    0.0167 C.ar    1  LIG1       -0.0191
     55 C          11.6638    1.1099    0.0104 C.ar    1  LIG1        0.0246
     56 C          14.4537    1.1319    0.0181 C.ar    1  LIG1       -0.0553
     57 H          14.3162   -1.0143    0.0186 H       1  LIG1        0.0654
     58 C          12.3529    2.3179    0.0118 C.ar    1  LIG1       -0.0476
     59 C          13.7515    2.3378    0.0156 C.ar    1  LIG1       -0.0496
     60 H          11.7970    3.2520    0.0102 H       1  LIG1        0.0627
     61 H          15.7537    1.1328    0.0219 H       1  LIG1        0.0621
     62 O          11.7669   -1.2781    0.0110 O.3     1  LIG1       -0.4880
     63 C          10.3489   -1.0938    0.0104 C.3     1  LIG1        0.1235
     64 H           9.8651   -2.0481    0.0091 H       1  LIG1        0.0731
     65 H          10.0597   -0.5486    0.8846 H       1  LIG1        0.0731
     66 H          10.0607   -0.5466   -0.8627 H       3  LIG3        0.0265
     67 C          14.3905    3.4703    0.0171 C.3     1  LIG1       -0.0397
     68 H          13.8046    4.2097    0.5219 H       1  LIG1        0.0278
     69 H          14.5663    3.7820   -0.9914 H       1  LIG1        0.0278
     70 H          15.3264    3.3511    0.5219 H       1  LIG1        0.0278
@<TRIPOS>BOND
     1    17    15    1
     2    34    32    1
     3    51    49    1
     4    69    67    1
     5    31     2    1
     6    14    11    1
     7    48    20    1
     8    66    37    1
     9    15     7    1
    10    15    18    1
    11    15    16    1
    12    26    24    1
    13     7     6    2
    14     7     4    1
    15    29    28    1
    16    21    24    1
    17    21     4    2
    18    21    19    1
    19    24    25    2
    20     6     8    1
    21     6     3    1
    22    28    27    1
    23    27    19    1
    24     1     3    2
    25     1    10    1
    26     3     9    1
    27     2     5    1
    28     2    30    1
    29    10    11    1
    30    11    12    1
    31    11    13    1
    32    25    32    1
    33    25    22    1
    34    32    35    1
    35    32    33    1
    36    20    23    1
    37    20    47    1
    38    22    38    2
    39    46    45    1
    40    43    41    1
    41    38    41    1
    42    38    36    1
    43    45    44    1
    44    44    36    1
    45    41    42    1
    46    42    49    1
    47    42    39    2
    48    49    52    1
    49    49    50    1
    50    37    40    1
    51    39    55    1
    52    64    63    1
    53    60    58    1
    54    55    58   ar
    55    55    53   ar
    56    63    62    1
    57    63    65    1
    58    62    53    1
    59    58    59   ar
    60    53    54   ar
    61    59    67    1
    62    59    56   ar
    63    54    56   ar
    64    54    57    1
    65    67    70    1
    66    67    68    1
    67    56    61    1
