@<TRIPOS>MOLECULE
mol_data/noopt/geoms/mol2/4li4li4li-4li-.out
 70 70 0 0 0
SMALL
GASTEIGER

@<TRIPOS>ATOM
      1 C           0.0509    0.0309    0.0002 C.2     1  LIG1        0.1579
      2 C           1.4592    0.0309    0.0002 C.3     2  LIG2       -0.0681
      3 C          -0.6045    1.2792    0.0002 C.2     1  LIG1       -0.0307
      4 C           2.1849    1.2200   -0.0004 C.2     1  LIG1       -0.0070
      5 H           1.9850   -0.9213    0.0004 H       1  LIG1        0.0227
      6 C           0.1195    2.4666   -0.0004 C.3     1  LIG1        0.0127
      7 C           1.5181    2.4458   -0.0008 C.2     1  LIG1       -0.0564
      8 H          -0.4090    3.4165   -0.0003 H       1  LIG1        0.0398
      9 H          -1.9035    1.3287    0.0016 H       1  LIG1        0.0616
     10 O          -0.5709   -1.1108    0.0005 O.2     1  LIG1       -0.4918
     11 C          -1.9830   -0.8853    0.0005 C.3     1  LIG1        0.0789
     12 H          -2.4943   -1.8252    0.0006 H       1  LIG1        0.0660
     13 H          -2.2556   -0.3309    0.8742 H       1  LIG1        0.0660
     14 H          -2.2557   -0.3310   -0.8731 H       1  LIG1        0.0660
     15 C           2.1897    3.5592   -0.0012 C.3     1  LIG1       -0.0423
     16 H           1.6260    4.3160    0.5031 H       1  LIG1        0.0275
     17 H           2.3738    3.8644   -1.0102 H       1  LIG1        0.0275
     18 H           3.1221    3.4135    0.5030 H       1  LIG1        0.0275
     19 C           4.1518   -0.0588    0.0002 C.ar    1  LIG1        0.1296
     20 C           5.5600   -0.0451    0.0016 C.ar    1  LIG1       -0.0112
     21 C           3.4843    1.1831   -0.0005 C.ar    1  LIG1        0.0247
     22 C           6.2742    1.1510    0.0017 C.ar    1  LIG1       -0.0077
     23 H           6.0950   -0.9922    0.0024 H       1  LIG1        0.0660
     24 C           4.1968    2.3775   -0.0004 C.ar    1  LIG1       -0.0467
     25 C           5.5955    2.3702    0.0006 C.ar    1  LIG1       -0.0384
     26 H           3.6591    3.3222   -0.0009 H       1  LIG1        0.0628
     27 O           3.5411   -1.2065   -0.0001 O.3     1  LIG1       -0.4805
     28 C           2.1269   -0.9946   -0.0003 C.3     1  LIG1        0.1805
     29 H           1.6247   -1.9395   -0.0006 H       1  LIG1        0.0811
     30 H           1.8487   -0.4432    0.8736 H       1  LIG1        0.0227
     31 H           1.8490   -0.4427   -0.8737 H       1  LIG1        0.0227
     32 C           6.2563    3.4901    0.0008 C.3     1  LIG1       -0.0231
     33 H           5.6851    4.2412    0.5053 H       1  LIG1        0.0316
     34 H           6.4376    3.7975   -1.0080 H       1  LIG1        0.0316
     35 H           7.1900    3.3532    0.5052 H       1  LIG1        0.2922
     36 C           8.2991    2.3358    0.0043 C.ar    1  LIG1        0.1251
     37 C           9.7051    2.2559    0.0071 C.ar    1  LIG1       -0.0115
     38 C           7.5739    1.1267    0.0029 C.ar    1  LIG1        0.0242
     39 C          10.3621    1.0275    0.0079 C.ar    1  LIG1       -0.0080
     40 H          10.2841    3.1767    0.0084 H       1  LIG1        0.0660
     41 C           8.2293   -0.0999    0.0037 C.ar    1  LIG1       -0.0470
     42 C           9.6269   -0.1585    0.0061 C.ar    1  LIG1       -0.0418
     43 H           7.6478   -1.0183    0.0026 H       1  LIG1        0.0628
     44 O           7.7431    3.5109    0.0034 O.3     1  LIG1       -0.5061
     45 C           8.7575    4.5188    0.0030 C.3     3  LIG3       -0.0681
     46 H           8.2995    5.4859    0.0022 H       2  LIG2        0.0227
     47 H           9.3657    4.4131    0.8770 H       2  LIG2        0.0227
     48 H           9.3663    4.4118   -0.8703 H       2  LIG2        0.0227
     49 C          10.2342   -1.3082    0.0069 C.3     1  LIG1       -0.0391
     50 H          11.1732   -1.2153    0.5116 H       1  LIG1        0.0278
     51 H          10.4012   -1.6242   -1.0017 H       1  LIG1        0.0278
     52 H           9.6281   -2.0314    0.5115 H       1  LIG1        0.0278
     53 C          12.3984    2.1926    0.0125 C.ar    1  LIG1        0.1278
     54 C          13.8036    2.0991    0.0167 C.ar    1  LIG1       -0.0191
     55 C          11.6616    0.9906    0.0104 C.ar    1  LIG1        0.0244
     56 C          14.4487    0.8644    0.0181 C.ar    1  LIG1       -0.0553
     57 H          14.3915    3.0142    0.0186 H       1  LIG1        0.0654
     58 C          12.3051   -0.2423    0.0118 C.ar    1  LIG1       -0.0476
     59 C          13.7020   -0.3144    0.0156 C.ar    1  LIG1       -0.0496
     60 H          11.7147   -1.1550    0.0102 H       1  LIG1        0.0627
     61 H          15.7478    0.8149    0.0219 H       1  LIG1        0.0621
     62 O          11.8539    3.3731    0.0110 O.3     1  LIG1       -0.4945
     63 C          12.8780    4.3711    0.0104 C.3     1  LIG1        0.0788
     64 H          12.4294    5.3425    0.0091 H       1  LIG1        0.0660
     65 H          13.4850    4.2598    0.8846 H       1  LIG1        0.0660
     66 H          13.4860    4.2578   -0.8627 H       1  LIG1        0.0660
     67 C          14.2982   -1.4700    0.0171 C.3     1  LIG1       -0.0397
     68 H          15.2378   -1.3859    0.5219 H       1  LIG1        0.0278
     69 H          14.4623   -1.7880   -0.9913 H       1  LIG1        0.0278
     70 H          13.6850   -2.1870    0.5219 H       1  LIG1        0.0278
@<TRIPOS>BOND
     1    17    15    1
     2    34    32    1
     3    51    49    1
     4    69    67    1
     5    31     2    1
     6    14    11    1
     7    48    45    1
     8    66    63    1
     9    15     7    1
    10    15    18    1
    11    15    16    1
    12    26    24    1
    13     7     6    1
    14     7     4    2
    15    29    28    1
    16    21    24   ar
    17    21     4    1
    18    21    19   ar
    19    24    25   ar
    20     6     8    1
    21     6     3    1
    22    28    27    1
    23    27    19    1
    24     1     3    2
    25     1    10    1
    26     3     9    1
    27     2     5    1
    28     2    30    1
    29    19    20   ar
    30    10    11    1
    31    11    12    1
    32    11    13    1
    33    25    32    1
    34    25    22   ar
    35    32    33    1
    36    20    22   ar
    37    20    23    1
    38    22    38    1
    39    46    45    1
    40    43    41    1
    41    38    41   ar
    42    38    36   ar
    43    45    47    1
    44    44    36    1
    45    44    35    1
    46    41    42   ar
    47    36    37   ar
    48    42    49    1
    49    42    39   ar
    50    49    52    1
    51    49    50    1
    52    37    39   ar
    53    37    40    1
    54    39    55    1
    55    64    63    1
    56    60    58    1
    57    55    58   ar
    58    55    53   ar
    59    63    62    1
    60    63    65    1
    61    62    53    1
    62    58    59   ar
    63    53    54   ar
    64    59    67    1
    65    59    56   ar
    66    54    56   ar
    67    54    57    1
    68    67    70    1
    69    67    68    1
    70    56    61    1
