@<TRIPOS>MOLECULE
mol_data/noopt/geoms/mol2/4li4li4li.out
 53 51 0 0 0
SMALL
GASTEIGER

@<TRIPOS>ATOM
      1 C           0.0509    0.0309    0.0002 C.2     1  LIG1        0.1615
      2 C           1.4592    0.0309    0.0002 C.3     2  LIG2       -0.0681
      3 C          -0.6045    1.2792    0.0002 C.2     1  LIG1       -0.0160
      4 C           2.1849    1.2200   -0.0004 C.2     1  LIG1       -0.0119
      5 H           1.9850   -0.9213    0.0004 H       1  LIG1        0.0227
      6 C           0.1195    2.4666   -0.0004 C.2     1  LIG1       -0.0547
      7 C           1.5181    2.4458   -0.0008 C.2     1  LIG1       -0.0426
      8 H          -0.4090    3.4165   -0.0003 H       1  LIG1        0.0622
      9 H          -1.9035    1.3287    0.0016 H       1  LIG1        0.0655
     10 O          -0.5709   -1.1108    0.0005 O.2     1  LIG1       -0.4915
     11 C          -1.9830   -0.8853    0.0005 C.3     1  LIG1        0.0790
     12 H          -2.4943   -1.8252    0.0006 H       1  LIG1        0.0660
     13 H          -2.2556   -0.3309    0.8742 H       1  LIG1        0.0660
     14 H          -2.2557   -0.3310   -0.8731 H       1  LIG1        0.0660
     15 C           2.1897    3.5592   -0.0012 C.3     1  LIG1       -0.0391
     16 H           1.6260    4.3160    0.5031 H       1  LIG1        0.0278
     17 H           2.3738    3.8644   -1.0102 H       1  LIG1        0.0278
     18 H           3.1221    3.4135    0.5030 H       1  LIG1        0.0278
     19 C           4.1518   -0.0588    0.0002 C.3     1  LIG1        0.1639
     20 C           5.5600   -0.0451    0.0016 C.3     3  LIG3       -0.0681
     21 C           3.4843    1.1831   -0.0005 C.2     1  LIG1       -0.0158
     22 C           6.2742    1.1510    0.0017 C.2     1  LIG1       -0.0070
     23 H           6.0950   -0.9922    0.0024 H       2  LIG2        0.0227
     24 C           4.1968    2.3775   -0.0004 C.3     1  LIG1        0.0159
     25 C           5.5955    2.3702    0.0006 C.2     1  LIG1       -0.0562
     26 H           3.6591    3.3222   -0.0009 H       1  LIG1        0.0401
     27 O           3.5411   -1.2065   -0.0001 O.3     1  LIG1       -0.3538
     28 C           2.1269   -0.9946   -0.0003 C.3     1  LIG1        0.1173
     29 H           1.6247   -1.9395   -0.0006 H       1  LIG1        0.0650
     30 H           1.8487   -0.4432    0.8736 H       1  LIG1        0.0227
     31 H           1.8490   -0.4427   -0.8737 H       1  LIG1        0.0227
     32 C           6.2563    3.4901    0.0008 C.3     1  LIG1       -0.0423
     33 H           5.6851    4.2412    0.5053 H       1  LIG1        0.0275
     34 H           6.4376    3.7975   -1.0080 H       1  LIG1        0.0275
     35 H           7.1900    3.3532    0.5052 H       1  LIG1        0.0275
     36 C           8.2534   -0.1087    0.0043 C.ar    1  LIG1        0.1290
     37 C           9.6614   -0.0814    0.0071 C.ar    1  LIG1       -0.0191
     38 C           7.5739    1.1267    0.0029 C.ar    1  LIG1        0.0246
     39 C          10.3639    1.1216    0.0079 C.ar    1  LIG1       -0.0553
     40 H          10.2056   -1.0232    0.0084 H       1  LIG1        0.0654
     41 C           8.2747    2.3279    0.0036 C.ar    1  LIG1       -0.0476
     42 C           9.6734    2.3342    0.0060 C.ar    1  LIG1       -0.0496
     43 H           7.7279    3.2674    0.0026 H       1  LIG1        0.0627
     44 H          11.6639    1.1099    0.0104 H       1  LIG1        0.0621
     45 O           7.6539   -1.2622    0.0034 O.3     1  LIG1       -0.4806
     46 C           6.2377   -1.0641    0.0031 C.3     1  LIG1        0.1805
     47 H           5.7446   -2.0138    0.0022 H       1  LIG1        0.0811
     48 H           5.9540   -0.5158    0.8770 H       2  LIG2        0.0227
     49 H           5.9546   -0.5145   -0.8703 H       2  LIG2        0.0227
     50 C          10.3234    3.4605    0.0069 C.3     1  LIG1       -0.0397
     51 H           9.7448    4.2058    0.5116 H       1  LIG1        0.0278
     52 H          10.5019    3.7700   -1.0017 H       1  LIG1        0.0278
     53 H          11.2582    3.3324    0.5115 H       1  LIG1        0.0278
@<TRIPOS>BOND
     1    17    15    1
     2    34    32    1
     3    52    50    1
     4    31     2    1
     5    14    11    1
     6    49    20    1
     7    15     7    1
     8    15    18    1
     9    15    16    1
    10    26    24    1
    11     7     6    2
    12     7     4    1
    13    29    28    1
    14    21    24    1
    15    21     4    2
    16    21    19    1
    17    24    25    1
    18     6     8    1
    19     6     3    1
    20    28    27    1
    21    27    19    1
    22     1     3    2
    23     1    10    1
    24     2     5    1
    25     2    30    1
    26     3     9    1
    27    10    11    1
    28    11    12    1
    29    11    13    1
    30    25    32    1
    31    25    22    2
    32    32    35    1
    33    32    33    1
    34    20    23    1
    35    20    48    1
    36    22    38    1
    37    47    46    1
    38    43    41    1
    39    38    41   ar
    40    38    36   ar
    41    46    45    1
    42    45    36    1
    43    41    42   ar
    44    36    37   ar
    45    42    50    1
    46    42    39   ar
    47    50    53    1
    48    50    51    1
    49    37    39   ar
    50    37    40    1
    51    39    44    1
