@<TRIPOS>MOLECULE
mol_data/noopt/geoms/mol2/4li4li.out
 36 35 0 0 0
SMALL
GASTEIGER

@<TRIPOS>ATOM
      1 C           0.0509    0.0309    0.0002 C.2     1  LIG1        0.1579
      2 C           1.4592    0.0309    0.0002 C.3     2  LIG2       -0.0681
      3 C          -0.6045    1.2792    0.0002 C.2     1  LIG1       -0.0307
      4 C           2.1849    1.2200   -0.0004 C.2     1  LIG1       -0.0070
      5 H           1.9850   -0.9213    0.0004 H       1  LIG1        0.0227
      6 C           0.1195    2.4666   -0.0004 C.3     1  LIG1        0.0127
      7 C           1.5181    2.4458   -0.0008 C.2     1  LIG1       -0.0564
      8 H          -0.4090    3.4165   -0.0003 H       1  LIG1        0.0398
      9 H          -1.9035    1.3287    0.0016 H       1  LIG1        0.0616
     10 O          -0.5709   -1.1108    0.0005 O.2     1  LIG1       -0.4918
     11 C          -1.9830   -0.8853    0.0005 C.3     1  LIG1        0.0789
     12 H          -2.4943   -1.8252    0.0006 H       1  LIG1        0.0660
     13 H          -2.2556   -0.3309    0.8742 H       1  LIG1        0.0660
     14 H          -2.2557   -0.3310   -0.8731 H       1  LIG1        0.0660
     15 C           2.1897    3.5592   -0.0012 C.3     1  LIG1       -0.0423
     16 H           1.6260    4.3160    0.5031 H       1  LIG1        0.0275
     17 H           2.3738    3.8644   -1.0102 H       1  LIG1        0.0275
     18 H           3.1221    3.4135    0.5030 H       1  LIG1        0.0275
     19 C           4.1518   -0.0588    0.0002 C.ar    1  LIG1        0.1290
     20 C           5.5600   -0.0451    0.0016 C.ar    1  LIG1       -0.0191
     21 C           3.4843    1.1831   -0.0005 C.ar    1  LIG1        0.0246
     22 C           6.2742    1.1510    0.0017 C.ar    1  LIG1       -0.0553
     23 H           6.0950   -0.9922    0.0024 H       1  LIG1        0.0654
     24 C           4.1968    2.3775   -0.0004 C.ar    1  LIG1       -0.0476
     25 C           5.5955    2.3702    0.0006 C.ar    1  LIG1       -0.0496
     26 H           3.6591    3.3222   -0.0009 H       1  LIG1        0.0627
     27 H           7.5740    1.1267    0.0029 H       1  LIG1        0.0621
     28 O           3.5411   -1.2065   -0.0001 O.3     1  LIG1       -0.4806
     29 C           2.1269   -0.9946   -0.0003 C.3     1  LIG1        0.1805
     30 H           1.6247   -1.9395   -0.0006 H       1  LIG1        0.0811
     31 H           1.8487   -0.4432    0.8736 H       1  LIG1        0.0227
     32 H           1.8490   -0.4427   -0.8737 H       1  LIG1        0.0227
     33 C           6.2563    3.4901    0.0008 C.3     1  LIG1       -0.0397
     34 H           5.6851    4.2412    0.5053 H       1  LIG1        0.0278
     35 H           6.4376    3.7975   -1.0080 H       1  LIG1        0.0278
     36 H           7.1900    3.3532    0.5052 H       1  LIG1        0.0278
@<TRIPOS>BOND
     1    17    15    1
     2    35    33    1
     3    32     2    1
     4    14    11    1
     5    15     7    1
     6    15    18    1
     7    15    16    1
     8    26    24    1
     9     7     4    2
    10     7     6    1
    11    30    29    1
    12    21    24   ar
    13    21     4    1
    14    21    19   ar
    15    24    25   ar
    16     6     8    1
    17     6     3    1
    18    29    28    1
    19    28    19    1
    20     1     3    2
    21     1    10    1
    22     3     9    1
    23     2     5    1
    24     2    31    1
    25    19    20   ar
    26    10    11    1
    27    11    12    1
    28    11    13    1
    29    25    33    1
    30    25    22   ar
    31    33    36    1
    32    33    34    1
    33    20    22   ar
    34    20    23    1
    35    22    27    1
