@<TRIPOS>MOLECULE
mol_data/noopt/geoms/mol2/4li4dd-13hi-12ed-.out
 54 57 0 0 0
SMALL
GASTEIGER

@<TRIPOS>ATOM
      1 C           0.0509    0.0309    0.0002 C.ar    1  LIG1        0.1207
      2 C           1.4592    0.0309    0.0002 C.ar    1  LIG1       -0.0120
      3 C          -0.6045    1.2792    0.0002 C.ar    1  LIG1       -0.0197
      4 C           2.1849    1.2200   -0.0004 C.ar    1  LIG1       -0.0103
      5 H           1.9850   -0.9213    0.0004 H       1  LIG1        0.0660
      6 C           0.1195    2.4666   -0.0004 C.ar    1  LIG1       -0.0548
      7 C           1.5181    2.4458   -0.0008 C.ar    1  LIG1       -0.0425
      8 H          -0.4090    3.4165   -0.0003 H       1  LIG1        0.0622
      9 H          -1.9035    1.3287    0.0016 H       1  LIG1        0.0654
     10 O          -0.5709   -1.1108    0.0005 O.3     1  LIG1       -0.4951
     11 C          -1.9830   -0.8853    0.0005 C.3     1  LIG1        0.0788
     12 H          -2.4943   -1.8252    0.0006 H       1  LIG1        0.0660
     13 H          -2.2556   -0.3309    0.8742 H       1  LIG1        0.0660
     14 H          -2.2557   -0.3310   -0.8731 H       1  LIG1        0.0660
     15 C           2.1897    3.5592   -0.0012 C.3     1  LIG1       -0.0391
     16 H           1.6260    4.3160    0.5031 H       1  LIG1        0.0278
     17 H           2.3738    3.8644   -1.0102 H       1  LIG1        0.0278
     18 H           3.1221    3.4135    0.5030 H       1  LIG1        0.0278
     19 C           4.1518   -0.0586    0.0215 C.ar    1  LIG1        0.0602
     20 C           5.5600   -0.0449    0.0220 C.ar    1  LIG1       -0.0333
     21 C           3.4843    1.1831   -0.0005 C.ar    1  LIG1        0.0011
     22 C           6.2742    1.1510    0.0009 C.ar    1  LIG1        0.0187
     23 H           6.0951   -0.9918    0.0390 H       1  LIG1        0.0637
     24 C           4.1968    2.3773   -0.0216 C.ar    1  LIG1       -0.0347
     25 C           5.5955    2.3701   -0.0212 C.ar    1  LIG1        0.0616
     26 H           3.6591    3.3219   -0.0383 H       1  LIG1        0.0637
     27 N           3.0026   -2.2182    0.0593 N.1     1  LIG1       -0.1908
     28 C           3.5412   -1.2061    0.0416 C.1     1  LIG1        0.0998
     29 N           6.8388    4.4769   -0.0581 N.1     1  LIG1       -0.1908
     30 C           6.2561    3.4895   -0.0408 C.1     1  LIG1        0.0998
     31 C           7.5739    1.1267    0.0018 C.ar    1  LIG1        0.0695
     32 C           8.4364    0.0761    0.0188 C.ar    1  LIG1        0.0539
     33 C           9.7641    0.6126    0.0120 C.ar    1  LIG1       -0.0009
     34 C           9.6546    1.9674   -0.0104 C.ar    1  LIG1        0.0885
     35 N           8.3154    2.2865   -0.0163 N.ar    1  LIG1       -0.3500
     36 H           7.9430    3.2079   -0.0318 H       1  LIG1        0.1661
     37 N           8.1119   -1.1826    0.0389 N.pl3   1  LIG1       -0.3561
     38 H           7.2362   -1.3085   -0.4273 H       1  LIG1        0.1424
     39 H           8.8174   -1.7163   -0.4273 H       1  LIG1        0.1424
     40 C          10.8724   -0.0674    0.0246 C.3     1  LIG1       -0.0358
     41 H          11.6291    0.4932    0.5325 H       1  LIG1        0.0279
     42 H          11.1847   -0.2590   -0.9807 H       1  LIG1        0.0279
     43 H          10.7153   -0.9961    0.5324 H       1  LIG1        0.0279
     44 C          10.5726    2.8878   -0.0243 C.ar    1  LIG1        0.1678
     45 C          11.9520    2.9008   -0.0347 C.ar    1  LIG1        0.0892
     46 C          12.3536    4.2920   -0.0482 C.ar    1  LIG1        0.1054
     47 C          11.1924    5.0371   -0.0452 C.ar    1  LIG1        0.1112
     48 O          10.0809    4.1938   -0.0306 O.2     1  LIG1       -0.4589
     49 H          10.9055    6.3051   -0.0526 H       1  LIG1        0.1043
     50 C          12.7574    1.8803   -0.0330 C.1     1  LIG1       -0.0645
     51 C          13.5015    0.9374   -0.0314 C.1     1  LIG1       -0.1138
     52 H          14.1644    0.0974   -0.0299 H       1  LIG1        0.1232
     53 N          14.6591    5.1104   -0.0717 N.1     1  LIG1       -0.1907
     54 C          13.5786    4.7268   -0.0607 C.1     1  LIG1        0.1036
@<TRIPOS>BOND
     1    17    15    1
     2    42    40    1
     3    14    11    1
     4    39    37    1
     5    38    37    1
     6    53    54    3
     7    54    46    1
     8    29    30    3
     9    49    47    1
    10    46    47   ar
    11    46    45   ar
    12    47    48   ar
    13    30    25    1
    14    26    24    1
    15    45    50    1
    16    45    44   ar
    17    50    51    3
    18    36    35    1
    19    51    52    1
    20    48    44   ar
    21    44    34    1
    22    24    25   ar
    23    24    21   ar
    24    25    22   ar
    25    35    34   ar
    26    35    31   ar
    27    34    33   ar
    28    15     7    1
    29    15    18    1
    30    15    16    1
    31     7     6   ar
    32     7     4   ar
    33    21     4    1
    34    21    19   ar
    35     6     8    1
    36     6     3   ar
    37     4     2   ar
    38     1     2   ar
    39     1     3   ar
    40     1    10    1
    41     2     5    1
    42     3     9    1
    43    10    11    1
    44    11    12    1
    45    11    13    1
    46    22    31    1
    47    22    20   ar
    48    31    32   ar
    49    33    32   ar
    50    33    40    1
    51    32    37    1
    52    19    20   ar
    53    19    28    1
    54    20    23    1
    55    40    43    1
    56    40    41    1
    57    28    27    3
