@<TRIPOS>MOLECULE
mol_data/noopt/geoms/mol2/4li4li-4li-4li.out
 70 67 0 0 0
SMALL
GASTEIGER

@<TRIPOS>ATOM
      1 C           0.0509    0.0309    0.0002 C.ar    1  LIG1        0.1207
      2 C           1.4592    0.0309    0.0002 C.ar    1  LIG1       -0.0119
      3 C          -0.6045    1.2792    0.0002 C.ar    1  LIG1       -0.0197
      4 C           2.1849    1.2200   -0.0004 C.ar    1  LIG1       -0.0078
      5 H           1.9850   -0.9213    0.0004 H       1  LIG1        0.0660
      6 C           0.1195    2.4666   -0.0004 C.ar    1  LIG1       -0.0545
      7 C           1.5181    2.4458   -0.0008 C.ar    1  LIG1       -0.0390
      8 H          -0.4090    3.4165   -0.0003 H       1  LIG1        0.0622
      9 H          -1.9035    1.3287    0.0016 H       1  LIG1        0.0654
     10 O          -0.5709   -1.1108    0.0005 O.3     1  LIG1       -0.4951
     11 C          -1.9830   -0.8853    0.0005 C.3     1  LIG1        0.0788
     12 H          -2.4943   -1.8252    0.0006 H       1  LIG1        0.0660
     13 H          -2.2556   -0.3309    0.8742 H       1  LIG1        0.0660
     14 H          -2.2557   -0.3310   -0.8731 H       1  LIG1        0.0660
     15 C           2.1897    3.5592   -0.0012 C.3     1  LIG1       -0.0231
     16 H           1.6260    4.3160    0.5031 H       1  LIG1        0.0316
     17 H           2.3738    3.8644   -1.0102 H       1  LIG1        0.0316
     18 H           3.1221    3.4135    0.5030 H       1  LIG1        0.2922
     19 C           4.2212    2.3851    0.0002 C.ar    1  LIG1        0.1251
     20 C           5.6264    2.2916    0.0016 C.ar    1  LIG1       -0.0118
     21 C           3.4843    1.1831   -0.0005 C.ar    1  LIG1        0.0242
     22 C           6.2715    1.0569    0.0017 C.ar    1  LIG1       -0.0123
     23 H           6.2143    3.2067    0.0024 H       1  LIG1        0.0660
     24 C           4.1278   -0.0498   -0.0004 C.ar    1  LIG1       -0.0470
     25 C           5.5247   -0.1219    0.0006 C.ar    1  LIG1       -0.0421
     26 H           3.5374   -0.9625   -0.0009 H       1  LIG1        0.0628
     27 O           3.6766    3.5656   -0.0001 O.3     1  LIG1       -0.5061
     28 C           4.7008    4.5636   -0.0003 C.3     2  LIG2       -0.0681
     29 H           4.2522    5.5351   -0.0007 H       1  LIG1        0.0227
     30 H           5.3081    4.4516    0.8736 H       1  LIG1        0.0227
     31 H           5.3084    4.4510   -0.8737 H       1  LIG1        0.0227
     32 C           6.1209   -1.2775    0.0008 C.3     1  LIG1       -0.0391
     33 H           7.0608   -1.1938    0.5053 H       1  LIG1        0.0278
     34 H           6.2846   -1.5946   -1.0080 H       1  LIG1        0.0278
     35 H           5.5080   -1.9949    0.5052 H       1  LIG1        0.0278
     36 C           8.3190    2.2022    0.0043 C.3     1  LIG1        0.1500
     37 C           9.7232    2.0950    0.0071 C.2     1  LIG1       -0.0363
     38 C           7.5705    1.0074    0.0029 C.2     1  LIG1       -0.0011
     39 C          10.3563    0.8541    0.0079 C.2     1  LIG1       -0.0076
     40 H          10.3199    3.0044    0.0084 H       1  LIG1        0.0611
     41 C           8.2020   -0.2317    0.0037 C.2     1  LIG1       -0.0545
     42 C           9.5982   -0.3174    0.0061 C.3     3  LIG3       -0.0309
     43 H           7.6028   -1.1386    0.0026 H       1  LIG1        0.0622
     44 O           7.7859    3.3879    0.0034 O.3     1  LIG1       -0.3643
     45 C           8.8197    4.3760    0.0030 C.3     1  LIG1        0.0382
     46 H           8.3805    5.3517    0.0022 H       1  LIG1        0.0524
     47 H           9.4258    4.2584    0.8770 H       1  LIG1        0.0524
     48 H           9.4263    4.2571   -0.8703 H       1  LIG1        0.0524
     49 C          10.1831   -1.4787    0.0069 C.3     4  LIG4       -0.0309
     50 H          11.1237   -1.4039    0.5116 H       1  LIG1        0.2922
     51 H          10.3439   -1.7978   -1.0017 H       4  LIG4        0.0265
     52 H           9.5631   -2.1899    0.5115 H       5  UNK5        0.0000
     53 C          12.2980   -0.4626    0.0125 C.ar    1  LIG1        0.1246
     54 C          13.7062   -0.4762    0.0167 C.ar    1  LIG1       -0.0193
     55 C          11.6548    0.7920    0.0104 C.ar    1  LIG1        0.0242
     56 C          14.4434    0.7058    0.0181 C.ar    1  LIG1       -0.0554
     57 H          14.2228   -1.4335    0.0186 H       1  LIG1        0.0654
     58 C          12.3902    1.9724    0.0118 C.ar    1  LIG1       -0.0476
     59 C          13.7886    1.9380    0.0156 C.ar    1  LIG1       -0.0496
     60 H          11.8710    2.9273    0.0102 H       1  LIG1        0.0627
     61 H          15.7425    0.6563    0.0219 H       1  LIG1        0.0621
     62 O          11.6652   -1.5982    0.0110 O.3     1  LIG1       -0.5062
     63 C          10.2554   -1.3590    0.0104 C.3     6  LIG6       -0.0531
     64 H           9.7349   -2.2939    0.0091 H       3  LIG3        0.0309
     65 H           9.9875   -0.8030    0.8846 H       4  LIG4        0.0265
     66 H           9.9886   -0.8010   -0.8627 H       2  LIG2        0.0309
     67 C          14.4710    3.0448    0.0171 C.3     1  LIG1       -0.0397
     68 H          13.9142    3.8065    0.5219 H       1  LIG1        0.0278
     69 H          14.6587    3.3495   -0.9914 H       1  LIG1        0.0278
     70 H          15.4015    2.8894    0.5219 H       1  LIG1        0.0278
@<TRIPOS>BOND
     1    17    15    1
     2    34    32    1
     3    51    63    1
     4    69    67    1
     5    31    28    1
     6    14    11    1
     7    48    45    1
     8    66    42    1
     9    15     7    1
    10    15    16    1
    11    26    24    1
    12     7     6   ar
    13     7     4   ar
    14    29    28    1
    15    21    24   ar
    16    21     4    1
    17    21    19   ar
    18    24    25   ar
    19     6     8    1
    20     6     3   ar
    21     4     2   ar
    22    28    30    1
    23    27    19    1
    24    27    18    1
    25    19    20   ar
    26     1     3   ar
    27     1     2   ar
    28     1    10    1
    29     3     9    1
    30     2     5    1
    31    10    11    1
    32    11    12    1
    33    11    13    1
    34    25    32    1
    35    25    22   ar
    36    32    35    1
    37    32    33    1
    38    20    22   ar
    39    20    23    1
    40    22    38    1
    41    46    45    1
    42    43    41    1
    43    38    41    2
    44    38    36    1
    45    45    44    1
    46    45    47    1
    47    44    36    1
    48    36    37    1
    49    49    64    1
    50    37    39    2
    51    37    40    1
    52    39    55    1
    53    60    58    1
    54    55    58   ar
    55    55    53   ar
    56    63    65    1
    57    62    53    1
    58    62    50    1
    59    58    59   ar
    60    53    54   ar
    61    59    67    1
    62    59    56   ar
    63    54    56   ar
    64    54    57    1
    65    67    70    1
    66    67    68    1
    67    56    61    1
