@<TRIPOS>MOLECULE
mol_data/noopt/geoms/mol2/4li4ah(300)13el(70)12ff.out
 54 57 0 0 0
SMALL
GASTEIGER

@<TRIPOS>ATOM
      1 C           0.0509    0.0309    0.0002 C.ar    1  LIG1        0.1207
      2 C           1.4592    0.0309    0.0002 C.ar    1  LIG1       -0.0120
      3 C          -0.6045    1.2792    0.0002 C.ar    1  LIG1       -0.0197
      4 C           2.1849    1.2200   -0.0004 C.ar    1  LIG1       -0.0115
      5 H           1.9850   -0.9213    0.0004 H       1  LIG1        0.0660
      6 C           0.1195    2.4666   -0.0004 C.ar    1  LIG1       -0.0548
      7 C           1.5181    2.4458   -0.0008 C.ar    1  LIG1       -0.0425
      8 H          -0.4090    3.4165   -0.0003 H       1  LIG1        0.0622
      9 H          -1.9035    1.3287    0.0016 H       1  LIG1        0.0654
     10 O          -0.5709   -1.1108    0.0005 O.3     1  LIG1       -0.4951
     11 C          -1.9830   -0.8853    0.0005 C.3     1  LIG1        0.0788
     12 H          -2.4943   -1.8252    0.0006 H       1  LIG1        0.0660
     13 H          -2.2556   -0.3309    0.8742 H       1  LIG1        0.0660
     14 H          -2.2557   -0.3310   -0.8731 H       1  LIG1        0.0660
     15 C           2.1897    3.5592   -0.0012 C.3     1  LIG1       -0.0391
     16 H           1.6260    4.3160    0.5031 H       1  LIG1        0.0278
     17 H           2.3738    3.8644   -1.0102 H       1  LIG1        0.0278
     18 H           3.1221    3.4135    0.5030 H       1  LIG1        0.0278
     19 C           4.1690    0.5515   -1.0588 C.ar    1  LIG1       -0.0533
     20 C           5.5765    0.5371   -1.0117 C.ar    1  LIG1       -0.0503
     21 C           3.4843    1.1831   -0.0005 C.ar    1  LIG1       -0.0157
     22 C           6.2734    1.1254    0.0412 C.ar    1  LIG1        0.0203
     23 H           6.1246    0.0549   -1.8181 H       1  LIG1        0.0625
     24 C           4.1796    1.7706    1.0510 C.ar    1  LIG1       -0.0327
     25 C           5.5779    1.7461    1.0795 C.ar    1  LIG1        0.0344
     26 H           3.6288    2.2514    1.8553 H       1  LIG1        0.0642
     27 H           3.5749   -0.0138   -2.0674 H       1  LIG1        0.0624
     28 N           6.2224    2.2968    2.0651 N.pl3   1  LIG1       -0.3574
     29 H           7.1898    2.0493    2.0103 H       1  LIG1        0.1423
     30 H           6.1291    3.2909    2.0103 H       1  LIG1        0.1423
     31 C           7.5730    1.0936    0.0527 C.ar    1  LIG1        0.0680
     32 C           8.4369    0.6914    1.0222 C.ar    1  LIG1        0.0923
     33 C           9.7636    0.8668    0.5125 C.ar    1  LIG1        0.1643
     34 C           9.6520    1.3669   -0.7467 C.ar    1  LIG1        0.1297
     35 N           8.3126    1.5077   -1.0320 N.ar    1  LIG1       -0.3477
     36 H           7.9389    1.8530   -1.8859 H       1  LIG1        0.1661
     37 C           8.1143    0.2339    2.1955 C.1     1  LIG1       -0.0638
     38 C           7.8162   -0.1889    3.2796 C.1     1  LIG1       -0.1137
     39 H           7.5507   -0.5656    4.2452 H       1  LIG1        0.1232
     40 O          10.8724    0.5982    1.1357 O.3     1  LIG1       -0.4916
     41 C          10.9621   -0.8105    1.3644 C.3     1  LIG1        0.0789
     42 H          11.8750   -1.0312    1.8772 H       1  LIG1        0.0660
     43 H          10.1324   -1.1287    1.9604 H       1  LIG1        0.0660
     44 H          10.9462   -1.3259    0.4268 H       1  LIG1        0.0660
     45 C          10.5685    1.6901   -1.6102 C.ar    1  LIG1        0.1995
     46 C          11.5927    1.0256   -2.2523 C.ar    1  LIG1        0.2067
     47 C          12.2482    1.9970   -3.1030 C.ar    1  LIG1        0.1977
     48 C          11.5807    3.1912   -2.9243 C.ar    1  LIG1        0.1378
     49 O          10.5408    3.0274   -2.0085 O.2     1  LIG1       -0.4538
     50 H          11.6948    4.3961   -3.3986 H       1  LIG1        0.1069
     51 O          11.9260   -0.2255   -2.1354 O.3     1  LIG1       -0.5008
     52 H          12.8826   -0.3009   -2.1065 H       1  LIG1        0.2924
     53 O          13.2669    1.7622   -3.8759 O.3     1  LIG1       -0.5012
     54 H          13.7212    2.5862   -4.0663 H       1  LIG1        0.2924
@<TRIPOS>BOND
     1    54    53    1
     2    53    47    1
     3    50    48    1
     4    47    48   ar
     5    47    46   ar
     6    48    49   ar
     7    46    51    1
     8    46    45   ar
     9    51    52    1
    10    27    19    1
    11    49    45   ar
    12    36    35    1
    13    23    20    1
    14    45    34    1
    15    19    20   ar
    16    19    21   ar
    17    35    34   ar
    18    35    31   ar
    19    20    22   ar
    20    17    15    1
    21    14    11    1
    22    34    33   ar
    23    15     7    1
    24    15    18    1
    25    15    16    1
    26     7     6   ar
    27     7     4   ar
    28    21     4    1
    29    21    24   ar
    30     6     8    1
    31     6     3   ar
    32     4     2   ar
    33     1     2   ar
    34     1     3   ar
    35     1    10    1
    36     2     5    1
    37     3     9    1
    38    10    11    1
    39    11    12    1
    40    11    13    1
    41    22    31    1
    42    22    25   ar
    43    31    32   ar
    44    44    41    1
    45    33    32   ar
    46    33    40    1
    47    32    37    1
    48    24    25   ar
    49    24    26    1
    50    25    28    1
    51    40    41    1
    52    41    42    1
    53    41    43    1
    54    30    28    1
    55    29    28    1
    56    37    38    3
    57    38    39    1
