@<TRIPOS>MOLECULE
mol_data/noopt/geoms/mol2/4li4li-4li.out
 53 49 0 0 0
SMALL
GASTEIGER

@<TRIPOS>ATOM
      1 C           0.0509    0.0309    0.0002 C.ar    1  LIG1        0.1207
      2 C           1.4592    0.0309    0.0002 C.ar    1  LIG1       -0.0122
      3 C          -0.6045    1.2792    0.0002 C.ar    1  LIG1       -0.0197
      4 C           2.1849    1.2200   -0.0004 C.ar    1  LIG1       -0.0121
      5 H           1.9850   -0.9213    0.0004 H       1  LIG1        0.0660
      6 C           0.1195    2.4666   -0.0004 C.ar    1  LIG1       -0.0545
      7 C           1.5181    2.4458   -0.0008 C.ar    1  LIG1       -0.0393
      8 H          -0.4090    3.4165   -0.0003 H       1  LIG1        0.0622
      9 H          -1.9035    1.3287    0.0016 H       1  LIG1        0.0654
     10 O          -0.5709   -1.1108    0.0005 O.3     1  LIG1       -0.4951
     11 C          -1.9830   -0.8853    0.0005 C.3     1  LIG1        0.0788
     12 H          -2.4943   -1.8252    0.0006 H       1  LIG1        0.0660
     13 H          -2.2556   -0.3309    0.8742 H       1  LIG1        0.0660
     14 H          -2.2557   -0.3310   -0.8731 H       1  LIG1        0.0660
     15 C           2.1897    3.5592   -0.0012 C.3     1  LIG1       -0.0231
     16 H           1.6260    4.3160    0.5031 H       1  LIG1        0.0316
     17 H           2.3738    3.8644   -1.0102 H       1  LIG1        0.0316
     18 H           3.1221    3.4135    0.5030 H       1  LIG1        0.2112
     19 C           4.2212    2.3851    0.0002 C.3     1  LIG1        0.1467
     20 C           5.6264    2.2916    0.0016 C.2     1  LIG1       -0.0366
     21 C           3.4843    1.1831   -0.0005 C.2     1  LIG1       -0.0013
     22 C           6.2715    1.0569    0.0017 C.2     1  LIG1       -0.0076
     23 H           6.2143    3.2067    0.0024 H       1  LIG1        0.0611
     24 C           4.1278   -0.0498   -0.0004 C.2     1  LIG1       -0.0545
     25 C           5.5247   -0.1219    0.0006 C.3     2  LIG2        0.0000
     26 H           3.5374   -0.9625   -0.0009 H       1  LIG1        0.0622
     27 O           3.6766    3.5656   -0.0001 O.3     1  LIG1       -0.3763
     28 C           4.7008    4.5636   -0.0003 C.3     3  LIG3       -0.0681
     29 H           4.2522    5.5351   -0.0007 H       2  LIG2        0.0227
     30 H           5.3081    4.4516    0.8736 H       2  LIG2        0.0227
     31 H           5.3084    4.4510   -0.8737 H       2  LIG2        0.0227
     32 C           6.1209   -1.2775    0.0008 C.3     4  LIG4       -0.0309
     33 H           7.0608   -1.1938    0.5053 H       1  LIG1        0.2922
     34 H           6.2846   -1.5946   -1.0080 H       4  LIG4        0.0227
     35 H           5.5080   -1.9949    0.5052 H       5  UNK5        0.0000
     36 C           8.2259   -0.2409    0.0043 C.ar    1  LIG1        0.1246
     37 C           9.6342   -0.2409    0.0071 C.ar    1  LIG1       -0.0193
     38 C           7.5705    1.0074    0.0029 C.ar    1  LIG1        0.0242
     39 C          10.3599    0.9482    0.0079 C.ar    1  LIG1       -0.0554
     40 H          10.1600   -1.1931    0.0084 H       1  LIG1        0.0654
     41 C           8.2945    2.1948    0.0036 C.ar    1  LIG1       -0.0476
     42 C           9.6931    2.1740    0.0060 C.ar    1  LIG1       -0.0496
     43 H           7.7660    3.1447    0.0026 H       1  LIG1        0.0627
     44 H          11.6594    0.9113    0.0104 H       1  LIG1        0.0621
     45 O           7.6041   -1.3826    0.0034 O.3     1  LIG1       -0.5062
     46 C           6.1920   -1.1571    0.0031 C.3     6  LIG6       -0.0681
     47 H           5.6807   -2.0970    0.0022 H       3  LIG3        0.0309
     48 H           5.9190   -0.6034    0.8770 H       4  LIG4        0.0227
     49 H           5.9197   -0.6021   -0.8703 H       4  LIG4        0.0227
     50 C          10.3647    3.2874    0.0069 C.3     1  LIG1       -0.0397
     51 H           9.8007    4.0438    0.5116 H       1  LIG1        0.0278
     52 H          10.5493    3.5934   -1.0017 H       1  LIG1        0.0278
     53 H          11.2969    3.1412    0.5115 H       1  LIG1        0.0278
@<TRIPOS>BOND
     1    17    15    1
     2    34    46    1
     3    52    50    1
     4    31    28    1
     5    14    11    1
     6    49    46    1
     7    15     7    1
     8    15    16    1
     9    26    24    1
    10     7     6   ar
    11     7     4   ar
    12    29    28    1
    13    21    24    2
    14    21     4    1
    15    21    19    1
    16     6     8    1
    17     6     3   ar
    18     4     2   ar
    19    28    30    1
    20    27    19    1
    21    27    18    1
    22    19    20    1
    23     1     2   ar
    24     1     3   ar
    25     1    10    1
    26     2     5    1
    27     3     9    1
    28    10    11    1
    29    11    12    1
    30    11    13    1
    31    32    47    1
    32    20    22    2
    33    20    23    1
    34    22    38    1
    35    43    41    1
    36    38    41   ar
    37    38    36   ar
    38    46    48    1
    39    45    36    1
    40    45    33    1
    41    41    42   ar
    42    36    37   ar
    43    42    50    1
    44    42    39   ar
    45    50    53    1
    46    50    51    1
    47    37    39   ar
    48    37    40    1
    49    39    44    1
