@<TRIPOS>MOLECULE
mol_data/noopt/geoms/mol2/4li4li-.out
 36 36 0 0 0
SMALL
GASTEIGER

@<TRIPOS>ATOM
      1 C           0.0509    0.0309    0.0002 C.ar    1  LIG1        0.1207
      2 C           1.4592    0.0309    0.0002 C.ar    1  LIG1       -0.0119
      3 C          -0.6045    1.2792    0.0002 C.ar    1  LIG1       -0.0197
      4 C           2.1849    1.2200   -0.0004 C.ar    1  LIG1       -0.0078
      5 H           1.9850   -0.9213    0.0004 H       1  LIG1        0.0660
      6 C           0.1195    2.4666   -0.0004 C.ar    1  LIG1       -0.0545
      7 C           1.5181    2.4458   -0.0008 C.ar    1  LIG1       -0.0390
      8 H          -0.4090    3.4165   -0.0003 H       1  LIG1        0.0622
      9 H          -1.9035    1.3287    0.0016 H       1  LIG1        0.0654
     10 O          -0.5709   -1.1108    0.0005 O.3     1  LIG1       -0.4951
     11 C          -1.9830   -0.8853    0.0005 C.3     1  LIG1        0.0788
     12 H          -2.4943   -1.8252    0.0006 H       1  LIG1        0.0660
     13 H          -2.2556   -0.3309    0.8742 H       1  LIG1        0.0660
     14 H          -2.2557   -0.3310   -0.8731 H       1  LIG1        0.0660
     15 C           2.1897    3.5592   -0.0012 C.3     1  LIG1       -0.0231
     16 H           1.6260    4.3160    0.5031 H       1  LIG1        0.0316
     17 H           2.3738    3.8644   -1.0102 H       1  LIG1        0.0316
     18 H           3.1221    3.4135    0.5030 H       1  LIG1        0.2922
     19 C           4.2212    2.3851    0.0002 C.ar    1  LIG1        0.1246
     20 C           5.6264    2.2916    0.0016 C.ar    1  LIG1       -0.0193
     21 C           3.4843    1.1831   -0.0005 C.ar    1  LIG1        0.0242
     22 C           6.2715    1.0569    0.0017 C.ar    1  LIG1       -0.0554
     23 H           6.2143    3.2067    0.0024 H       1  LIG1        0.0654
     24 C           4.1278   -0.0498   -0.0004 C.ar    1  LIG1       -0.0476
     25 C           5.5247   -0.1219    0.0006 C.ar    1  LIG1       -0.0496
     26 H           3.5374   -0.9625   -0.0009 H       1  LIG1        0.0627
     27 H           7.5706    1.0074    0.0029 H       1  LIG1        0.0621
     28 O           3.6766    3.5656   -0.0001 O.3     1  LIG1       -0.5062
     29 C           4.7008    4.5636   -0.0003 C.3     2  LIG2       -0.0681
     30 H           4.2522    5.5351   -0.0007 H       1  LIG1        0.0227
     31 H           5.3081    4.4516    0.8736 H       1  LIG1        0.0227
     32 H           5.3084    4.4510   -0.8737 H       1  LIG1        0.0227
     33 C           6.1209   -1.2775    0.0008 C.3     1  LIG1       -0.0397
     34 H           7.0608   -1.1938    0.5053 H       1  LIG1        0.0278
     35 H           6.2846   -1.5946   -1.0080 H       1  LIG1        0.0278
     36 H           5.5080   -1.9949    0.5052 H       1  LIG1        0.0278
@<TRIPOS>BOND
     1    17    15    1
     2    35    33    1
     3    32    29    1
     4    14    11    1
     5    15     7    1
     6    15    16    1
     7    26    24    1
     8     7     4   ar
     9     7     6   ar
    10    30    29    1
    11    21    24   ar
    12    21     4    1
    13    21    19   ar
    14    24    25   ar
    15     4     2   ar
    16     6     8    1
    17     6     3   ar
    18    29    31    1
    19    28    19    1
    20    28    18    1
    21    19    20   ar
    22     1     2   ar
    23     1     3   ar
    24     1    10    1
    25     2     5    1
    26     3     9    1
    27    10    11    1
    28    11    12    1
    29    11    13    1
    30    25    33    1
    31    25    22   ar
    32    33    36    1
    33    33    34    1
    34    20    22   ar
    35    20    23    1
    36    22    27    1
