@<TRIPOS>MOLECULE
mol_data/noopt/geoms/mol2/4li6dd-4hi-6le-.out
 60 61 0 0 0
SMALL
GASTEIGER

@<TRIPOS>ATOM
      1 C           0.0509    0.0309    0.0002 C.ar    1  LIG1        0.1207
      2 C           1.4592    0.0309    0.0002 C.ar    1  LIG1       -0.0119
      3 C          -0.6045    1.2792    0.0002 C.ar    1  LIG1       -0.0197
      4 C           2.1849    1.2200   -0.0004 C.ar    1  LIG1       -0.0092
      5 H           1.9850   -0.9213    0.0004 H       1  LIG1        0.0660
      6 C           0.1195    2.4666   -0.0004 C.ar    1  LIG1       -0.0545
      7 C           1.5181    2.4458   -0.0008 C.ar    1  LIG1       -0.0391
      8 H          -0.4090    3.4165   -0.0003 H       1  LIG1        0.0622
      9 H          -1.9035    1.3287    0.0016 H       1  LIG1        0.0654
     10 O          -0.5709   -1.1108    0.0005 O.3     1  LIG1       -0.4951
     11 C          -1.9830   -0.8853    0.0005 C.3     1  LIG1        0.0788
     12 H          -2.4943   -1.8252    0.0006 H       1  LIG1        0.0660
     13 H          -2.2556   -0.3309    0.8742 H       1  LIG1        0.0660
     14 H          -2.2557   -0.3310   -0.8731 H       1  LIG1        0.0660
     15 C           2.1897    3.5592   -0.0012 C.3     1  LIG1       -0.0231
     16 H           1.6260    4.3160    0.5031 H       1  LIG1        0.0316
     17 H           2.3738    3.8644   -1.0102 H       1  LIG1        0.0316
     18 H           3.1221    3.4135    0.5030 H       1  LIG1        0.0870
     19 C           4.2297    2.3762   -0.0216 C.ar    1  LIG1        0.0920
     20 C           3.4844    1.1831   -0.0005 C.ar    1  LIG1        0.0097
     21 C           4.1715   -0.0320    0.0205 C.ar    1  LIG1       -0.0464
     22 C           5.5674   -0.0147    0.0195 C.ar    1  LIG1       -0.0165
     23 C           6.2235    1.2297   -0.0026 C.ar    1  LIG1        0.0770
     24 N           5.5764    2.4113   -0.0228 N.ar    1  LIG1       -0.2448
     25 H           3.6233   -0.9846    0.0362 H       1  LIG1        0.0628
     26 N           3.1108    4.5516   -0.0589 N.2     1  LIG1       -0.1555
     27 C           3.6351    3.5321   -0.0414 C.2     1  LIG1        0.0758
     28 N           6.8580   -2.0929    0.0549 N.3     2  LIG2        0.0000
     29 C           6.2531   -1.1189    0.0383 C.3     1  LIG1        0.0011
     30 C           8.2870    0.1137    0.0168 C.ar    1  LIG1        0.0541
     31 C           9.6896    0.2408    0.0155 C.ar    1  LIG1       -0.0306
     32 C           7.5217    1.2976   -0.0044 C.ar    1  LIG1        0.0232
     33 C          10.3050    1.4903   -0.0065 C.ar    1  LIG1       -0.0078
     34 H          10.2991   -0.6600    0.0318 H       1  LIG1        0.0643
     35 C           8.1356    2.5453   -0.0263 C.ar    1  LIG1       -0.0470
     36 C           9.5304    2.6507   -0.0277 C.ar    1  LIG1       -0.0384
     37 H           7.5235    3.4435   -0.0423 H       1  LIG1        0.0628
     38 N           7.7708   -1.0793    0.0376 N.pl3   1  LIG1       -0.2659
     39 H           6.8861   -1.0678   -0.4285 H       1  LIG1        0.0362
     40 H           8.3848   -1.7163   -0.4285 H       1  LIG1        0.1699
     41 C          10.0988    3.8200   -0.0481 C.3     1  LIG1       -0.0231
     42 H           9.4725    4.5299    0.4507 H       1  LIG1        0.0316
     43 H          10.2478    4.1266   -1.0624 H       1  LIG1        0.0316
     44 H          11.0439    3.7659    0.4506 H       1  LIG1        0.2937
     45 C          12.2371    2.8262   -0.0285 C.ar    1  LIG1        0.2203
     46 C          11.6025    1.5708   -0.0071 C.ar    1  LIG1        0.0450
     47 C          12.3965    0.4227    0.0135 C.ar    1  LIG1       -0.0321
     48 C          13.7851    0.5658    0.0119 C.ar    1  LIG1        0.0436
     49 C          14.3263    1.8643   -0.0104 C.ar    1  LIG1        0.0468
     50 N          13.5752    2.9827   -0.0303 N.ar    1  LIG1       -0.2197
     51 H          11.9365   -0.5755    0.0295 H       1  LIG1        0.0638
     52 H          15.6131    2.0491   -0.0127 H       1  LIG1        0.0843
     53 O          11.5407    3.9238   -0.0481 O.3     1  LIG1       -0.4920
     54 C          12.4233    5.0490   -0.0554 C.3     3  LIG3       -0.0681
     55 H          11.8497    5.9521   -0.0716 H       2  LIG2        0.0227
     56 H          13.0331    5.0296    0.8237 H       2  LIG2        0.0227
     57 H          13.0474    5.0072   -0.9234 H       2  LIG2        0.0227
     58 C          14.5677   -0.4721    0.0305 C.1     1  LIG1       -0.0681
     59 C          15.2909   -1.4310    0.0476 C.1     1  LIG1       -0.1139
     60 H          15.9350   -2.2853    0.0628 H       1  LIG1        0.1232
@<TRIPOS>BOND
     1    43    41    1
     2    17    15    1
     3    57    54    1
     4    14    11    1
     5    40    38    1
     6    39    29    1
     7    55    54    1
     8    26    27    2
     9    54    56    1
    10    53    45    1
    11    53    44    1
    12    41    36    1
    13    41    42    1
    14    37    35    1
    15    27    19    1
    16    27    18    1
    17    50    45   ar
    18    50    49   ar
    19    45    46   ar
    20    36    35   ar
    21    36    33   ar
    22    35    32   ar
    23    24    19   ar
    24    24    23   ar
    25    19    20   ar
    26    52    49    1
    27    49    48   ar
    28    46    33    1
    29    46    47   ar
    30    33    31   ar
    31    32    23    1
    32    32    30   ar
    33    23    22   ar
    34    15     7    1
    35    15    16    1
    36     7     6   ar
    37     7     4   ar
    38    20     4    1
    39    20    21   ar
    40     6     8    1
    41     6     3   ar
    42     4     2   ar
    43     1     3   ar
    44     1     2   ar
    45     1    10    1
    46     3     9    1
    47     2     5    1
    48    10    11    1
    49    11    12    1
    50    11    13    1
    51    48    47   ar
    52    48    58    1
    53    47    51    1
    54    31    30   ar
    55    31    34    1
    56    30    38    1
    57    22    21   ar
    58    22    29    1
    59    21    25    1
    60    58    59    3
    61    59    60    1
