@<TRIPOS>MOLECULE
mol_data/noopt/geoms/mol2/4li6ef(240)12fe(210)13id(320).out
 53 56 0 0 0
SMALL
GASTEIGER

@<TRIPOS>ATOM
      1 C           0.0509    0.0309    0.0002 C.ar    1  LIG1        0.1207
      2 C           1.4592    0.0309    0.0002 C.ar    1  LIG1       -0.0119
      3 C          -0.6045    1.2792    0.0002 C.ar    1  LIG1       -0.0197
      4 C           2.1849    1.2200   -0.0004 C.ar    1  LIG1       -0.0088
      5 H           1.9850   -0.9213    0.0004 H       1  LIG1        0.0660
      6 C           0.1195    2.4666   -0.0004 C.ar    1  LIG1       -0.0548
      7 C           1.5181    2.4458   -0.0008 C.ar    1  LIG1       -0.0424
      8 H          -0.4090    3.4165   -0.0003 H       1  LIG1        0.0622
      9 H          -1.9035    1.3287    0.0016 H       1  LIG1        0.0654
     10 O          -0.5709   -1.1108    0.0005 O.3     1  LIG1       -0.4951
     11 C          -1.9830   -0.8853    0.0005 C.3     1  LIG1        0.0788
     12 H          -2.4943   -1.8252    0.0006 H       1  LIG1        0.0660
     13 H          -2.2556   -0.3309    0.8742 H       1  LIG1        0.0660
     14 H          -2.2557   -0.3310   -0.8731 H       1  LIG1        0.0660
     15 C           2.1897    3.5592   -0.0012 C.3     1  LIG1       -0.0391
     16 H           1.6260    4.3160    0.5031 H       1  LIG1        0.0278
     17 H           2.3738    3.8644   -1.0102 H       1  LIG1        0.0278
     18 H           3.1221    3.4135    0.5030 H       1  LIG1        0.0278
     19 C           4.1781    0.5556    1.0504 C.ar    1  LIG1        0.1219
     20 C           3.4844    1.1831   -0.0005 C.ar    1  LIG1        0.0198
     21 C           4.2224    1.7603   -1.0355 C.ar    1  LIG1       -0.0076
     22 C           5.6157    1.6921   -0.9864 C.ar    1  LIG1        0.1465
     23 C           6.2182    1.0430    0.1068 C.ar    1  LIG1        0.1523
     24 N           5.5216    0.4807    1.1138 N.ar    1  LIG1       -0.2309
     25 H           3.7153    2.2602   -1.8730 H       1  LIG1        0.0662
     26 C           3.5351    0.0039    2.0364 C.1     1  LIG1       -0.0492
     27 C           2.9410   -0.5059    2.9475 C.1     1  LIG1       -0.1124
     28 H           2.4118   -0.9600    3.7591 H       1  LIG1        0.1232
     29 O           6.3477    2.2143   -1.9255 O.3     1  LIG1       -0.5045
     30 H           6.0025    3.0797   -2.1569 H       1  LIG1        0.2922
     31 C           7.5120    0.9537    0.1973 C.ar    1  LIG1        0.1999
     32 C           8.5804    1.7453   -0.1698 C.ar    1  LIG1        0.1807
     33 C           9.7782    1.0382    0.2328 C.ar    1  LIG1        0.1139
     34 C           9.3621   -0.1392    0.8195 C.ar    1  LIG1        0.1711
     35 O           7.9688   -0.2142    0.8096 O.2     1  LIG1       -0.4466
     36 O           8.5471    2.9023   -0.7618 O.3     1  LIG1       -0.5023
     37 H           7.6344    3.1614   -0.9077 H       1  LIG1        0.2923
     38 C          10.9977    1.4551    0.0621 C.1     1  LIG1       -0.0621
     39 C          12.1244    1.8404   -0.0955 C.1     1  LIG1       -0.1137
     40 H          13.1281    2.1836   -0.2359 H       1  LIG1        0.1232
     41 C           9.9519   -1.1626    1.3625 C.ar    1  LIG1        0.0877
     42 C           9.7748   -2.4945    1.1562 C.ar    1  LIG1       -0.0048
     43 C          10.6850   -3.1857    2.0190 C.ar    1  LIG1        0.0726
     44 C          11.3795   -2.2457    2.7133 C.ar    1  LIG1        0.0200
     45 N          10.9336   -1.0057    2.3148 N.ar    1  LIG1       -0.3568
     46 H          11.2678   -0.1354    2.6595 H       1  LIG1        0.1655
     47 H          12.3112   -2.3768    3.6104 H       1  LIG1        0.0820
     48 C           8.9318   -3.0372    0.3281 C.3     1  LIG1       -0.0364
     49 H           8.9035   -4.0945    0.4899 H       1  LIG1        0.0279
     50 H           9.2408   -2.8384   -0.6769 H       1  LIG1        0.0279
     51 H           7.9576   -2.6254    0.4899 H       1  LIG1        0.0279
     52 N          10.9477   -5.6104    2.2124 N.1     1  LIG1       -0.1908
     53 C          10.8246   -4.4741    2.1218 C.1     1  LIG1        0.1009
@<TRIPOS>BOND
     1    30    29    1
     2    29    22    1
     3    25    21    1
     4    21    22   ar
     5    21    20   ar
     6    17    15    1
     7    22    23   ar
     8    37    36    1
     9    14    11    1
    10    36    32    1
    11    50    48    1
    12    40    39    1
    13    32    31   ar
    14    32    33   ar
    15    39    38    3
    16    15     7    1
    17    15    18    1
    18    15    16    1
    19     7     4   ar
    20     7     6   ar
    21    20     4    1
    22    20    19   ar
    23     4     2   ar
    24     6     8    1
    25     6     3   ar
    26     1     2   ar
    27     1     3   ar
    28     1    10    1
    29     2     5    1
    30     3     9    1
    31    10    11    1
    32    11    12    1
    33    11    13    1
    34    38    33    1
    35    23    31    1
    36    23    24   ar
    37    31    35   ar
    38    33    34   ar
    39    48    51    1
    40    48    49    1
    41    48    42    1
    42    35    34   ar
    43    34    41    1
    44    19    24   ar
    45    19    26    1
    46    42    41   ar
    47    42    43   ar
    48    41    45   ar
    49    43    53    1
    50    43    44   ar
    51    26    27    3
    52    53    52    3
    53    45    46    1
    54    45    44   ar
    55    44    47    1
    56    27    28    1
