@<TRIPOS>MOLECULE
mol_data/noopt/geoms/mol2/4ll12he6ei-12aa13le-13ha-6aa-6al-.out
 98 102 0 0 0
SMALL
GASTEIGER

@<TRIPOS>ATOM
      1 C           0.0509    0.0309    0.0002 C.ar    1  LIG1        0.1209
      2 C           1.4592    0.0309    0.0002 C.ar    1  LIG1       -0.0085
      3 C          -0.6045    1.2792    0.0002 C.ar    1  LIG1       -0.0163
      4 C           2.1849    1.2200   -0.0004 C.ar    1  LIG1        0.0347
      5 H           1.9850   -0.9213    0.0004 H       1  LIG1        0.0661
      6 C           0.1195    2.4666   -0.0004 C.ar    1  LIG1       -0.0109
      7 C           1.5181    2.4458   -0.0008 C.ar    1  LIG1        0.1869
      8 H          -0.4090    3.4165   -0.0003 H       1  LIG1        0.0657
      9 H          -1.9035    1.3287    0.0016 H       1  LIG1        0.0655
     10 O          -0.5709   -1.1108    0.0005 O.3     1  LIG1       -0.4951
     11 C          -1.9830   -0.8853    0.0005 C.3     1  LIG1        0.0788
     12 H          -2.4943   -1.8252    0.0006 H       1  LIG1        0.0660
     13 H          -2.2556   -0.3309    0.8742 H       1  LIG1        0.0660
     14 H          -2.2557   -0.3310   -0.8731 H       1  LIG1        0.0660
     15 O           2.1896    3.5590   -0.0012 O.3     1  LIG1       -0.2873
     16 C           3.5904    3.2714   -0.0014 C.3     2  LIG2       -0.0309
     17 H           4.1427    4.1879   -0.0019 H       1  LIG1        0.0309
     18 H           3.8386    2.7059    0.8724 H       0  HOH0        0.2052
     19 H           3.8381    2.7052   -0.8749 H       0  HOH0        0.2052
     20 C           3.4844    1.1831   -0.0005 C.2     1  LIG1        0.0173
     21 C           4.4399    0.1881   -0.0006 C.2     1  LIG1        0.0493
     22 C           5.7279    0.8499   -0.0007 C.2     1  LIG1        0.0543
     23 C           5.4738    2.2061   -0.0008 C.2     1  LIG1        0.0110
     24 O           4.0977    2.4367   -0.0007 O.3     3  HOH3       -0.4105
     25 N           4.2495   -1.0979   -0.0005 N.pl3   1  LIG1       -0.3565
     26 H           3.3930   -1.3081   -0.4718 H       1  LIG1        0.1424
     27 H           5.0083   -1.5472   -0.4719 H       1  LIG1        0.1424
     28 C           6.8846    0.2566   -0.0008 C.1     1  LIG1       -0.0672
     29 C           7.9534   -0.2917   -0.0008 C.1     1  LIG1       -0.1138
     30 H           8.9054   -0.7801   -0.0009 H       1  LIG1        0.1232
     31 C           5.5902    4.5522   -0.0218 C.ar    1  LIG1        0.1217
     32 C           6.1999    3.2844   -0.0008 C.ar    1  LIG1        0.0181
     33 C           7.5941    3.2154    0.0202 C.ar    1  LIG1       -0.0463
     34 C           8.3258    4.4041    0.0192 C.ar    1  LIG1       -0.0208
     35 C           7.6251    5.6240   -0.0029 C.ar    1  LIG1        0.1103
     36 N           6.2806    5.7090   -0.0231 N.ar    1  LIG1       -0.2344
     37 H           8.1059    2.2427    0.0360 H       1  LIG1        0.0628
     38 C           4.2955    4.6679   -0.0417 C.1     1  LIG1       -0.0492
     39 C           3.0992    4.7748   -0.0601 C.1     1  LIG1       -0.1124
     40 H           2.0336    4.8700   -0.0764 H       1  LIG1        0.1232
     41 C           9.6260    4.3932    0.0381 C.3     1  LIG1       -0.0376
     42 H           9.9826    5.2639    0.5476 H       1  LIG1        0.0278
     43 H           9.9972    4.3902   -0.9655 H       1  LIG1        0.0278
     44 H           9.9679    3.5166    0.5476 H       1  LIG1        0.0278
     45 C           8.2619    6.7573   -0.0045 C.ar    1  LIG1        0.1542
     46 C           9.5870    7.1408    0.0090 C.ar    1  LIG1       -0.0137
     47 C           9.5999    8.5888   -0.0033 C.ar    1  LIG1       -0.0136
     48 C           8.2813    8.9942   -0.0237 C.ar    1  LIG1        0.1555
     49 O           7.4374    7.8831   -0.0249 O.2     1  LIG1       -0.4517
     50 H          10.6369    6.3745    0.0290 H       1  LIG1        0.0656
     51 H          10.6630    9.3370    0.0037 H       1  LIG1        0.0656
     52 C           7.6642   10.1383   -0.0414 C.ar    1  LIG1        0.1260
     53 C           8.1558   11.4057   -0.0371 C.ar    1  LIG1        0.1642
     54 C           7.0366   12.2986   -0.0627 C.ar    1  LIG1        0.0937
     55 C           5.9103   11.5376   -0.0833 C.ar    1  LIG1        0.0844
     56 N           6.2900   10.2144   -0.0698 N.ar    1  LIG1       -0.3466
     57 H           5.6702    9.4373   -0.0797 H       1  LIG1        0.1662
     58 O           9.4115   11.7414   -0.0126 O.3     1  LIG1       -0.4916
     59 C          10.2206   10.5623   -0.0037 C.3     1  LIG1        0.0789
     60 H          11.2540   10.8391    0.0163 H       1  LIG1        0.0660
     61 H           9.9909    9.9786    0.8632 H       1  LIG1        0.0660
     62 H          10.0224    9.9870   -0.8838 H       1  LIG1        0.0660
     63 C           7.0846   13.5977   -0.0663 C.1     1  LIG1       -0.0638
     64 C           7.1290   14.7981   -0.0696 C.1     1  LIG1       -0.1137
     65 H           7.1686   15.8674   -0.0725 H       1  LIG1        0.1232
     66 C           4.6578   11.8850   -0.1100 C.ar    1  LIG1        0.0856
     67 C           4.0847   13.1176   -0.1286 C.ar    1  LIG1        0.0523
     68 C           2.6654   12.9289   -0.1544 C.ar    1  LIG1       -0.0150
     69 C           2.4337   11.5893   -0.1523 C.ar    1  LIG1        0.0502
     70 N           3.6508   10.9466   -0.1247 N.ar    1  LIG1       -0.3515
     71 H           3.7817    9.9612   -0.1172 H       1  LIG1        0.1660
     72 N           4.7127   14.2558   -0.1223 N.pl3   1  LIG1       -0.3563
     73 H           5.5898   14.1552   -0.5921 H       1  LIG1        0.1424
     74 H           4.1600   14.9441   -0.5921 H       1  LIG1        0.1424
     75 H           1.7621   13.8635   -0.1763 H       1  LIG1        0.0657
     76 C           1.3227    9.5201   -0.2011 C.ar    1  LIG1        0.0374
     77 C           1.3154   10.9267   -0.1703 C.ar    1  LIG1        0.0165
     78 C           0.0854   11.5869   -0.1592 C.ar    1  LIG1       -0.0492
     79 C          -1.0854   10.8270   -0.1794 C.ar    1  LIG1       -0.0350
     80 C          -0.9753    9.4247   -0.2101 C.ar    1  LIG1        0.0726
     81 N           0.2030    8.7714   -0.2209 N.ar    1  LIG1       -0.2543
     82 H           0.0400   12.6850   -0.1363 H       1  LIG1        0.0625
     83 H           2.4428    8.8604   -0.2123 H       1  LIG1        0.0836
     84 H          -2.2550   11.3943   -0.1705 H       1  LIG1        0.0639
     85 C          -1.9160    7.2728   -0.2613 C.ar    1  LIG1        0.0370
     86 C          -2.0366    8.6741   -0.2296 C.ar    1  LIG1        0.0219
     87 C          -3.3158    9.2332   -0.2195 C.ar    1  LIG1       -0.0078
     88 C          -4.4215    8.3814   -0.2413 C.ar    1  LIG1        0.1387
     89 C          -4.1988    6.9926   -0.2728 C.ar    1  LIG1        0.0692
     90 N          -2.9717    6.4363   -0.2827 N.ar    1  LIG1       -0.2590
     91 H          -3.4495   10.3240   -0.1959 H       1  LIG1        0.0662
     92 H          -5.1961    6.1590   -0.2939 H       1  LIG1        0.0867
     93 H          -0.7464    6.7054   -0.2718 H       1  LIG1        0.0836
     94 O          -5.6331    8.8527   -0.2333 O.3     1  LIG1       -0.4936
     95 C          -5.5893   10.2820   -0.2304 C.3     1  LIG1        0.0789
     96 H          -6.5867   10.6695   -0.2239 H       1  LIG1        0.0660
     97 H          -5.0693   10.6212    0.6412 H       1  LIG1        0.0660
     98 H          -5.0791   10.6250   -1.1061 H       1  LIG1        0.0660
@<TRIPOS>BOND
     1    98    95    1
     2    43    41    1
     3    62    59    1
     4    19    24    1
     5    14    11    1
     6    74    72    1
     7    73    72    1
     8    27    25    1
     9    26    25    1
    10    92    89    1
    11    90    89   ar
    12    90    85   ar
    13    89    88   ar
    14    93    85    1
    15    85    86   ar
    16    88    94    1
    17    88    87   ar
    18    94    95    1
    19    95    96    1
    20    95    97    1
    21    86    87   ar
    22    86    80    1
    23    81    80   ar
    24    81    76   ar
    25    87    91    1
    26    83    76    1
    27    80    79   ar
    28    76    77   ar
    29    79    84    1
    30    79    78   ar
    31    75    68    1
    32    77    78   ar
    33    77    69    1
    34    78    82    1
    35    68    69   ar
    36    68    67   ar
    37    69    70   ar
    38    67    72    1
    39    67    66   ar
    40    70    71    1
    41    70    66   ar
    42    66    55    1
    43    55    56   ar
    44    55    54   ar
    45    57    56    1
    46    40    39    1
    47    65    64    1
    48    56    52   ar
    49    64    63    3
    50    63    54    1
    51    54    53   ar
    52    39    38    3
    53    38    31    1
    54    52    53   ar
    55    52    48    1
    56    53    58    1
    57    49    48   ar
    58    49    45   ar
    59    48    47   ar
    60    36    31   ar
    61    36    35   ar
    62    31    32   ar
    63    58    59    1
    64    45    35    1
    65    45    46   ar
    66    59    60    1
    67    59    61    1
    68    47    51    1
    69    47    46   ar
    70    35    34   ar
    71    17    16    1
    72    15     7    1
    73    30    29    1
    74    29    28    3
    75    32    23    1
    76    32    33   ar
    77     7     6   ar
    78     7     4   ar
    79    28    22    1
    80    23    22    2
    81    24    18    1
    82    22    21    1
    83    21    20    2
    84    21    25    1
    85    20     4    1
    86     6     8    1
    87     6     3   ar
    88     4     2   ar
    89     1     2   ar
    90     1     3   ar
    91     1    10    1
    92     2     5    1
    93     3     9    1
    94    10    11    1
    95    11    12    1
    96    11    13    1
    97    46    50    1
    98    34    33   ar
    99    34    41    1
   100    33    37    1
   101    41    44    1
   102    41    42    1
