@<TRIPOS>MOLECULE
mol_data/noopt/geoms/mol2/4ll13el(260)13hd(70)12he(70).out
 56 59 0 0 0
SMALL
GASTEIGER

@<TRIPOS>ATOM
      1 C           0.0509    0.0309    0.0002 C.ar    1  LIG1        0.1209
      2 C           1.4592    0.0309    0.0002 C.ar    1  LIG1       -0.0073
      3 C          -0.6045    1.2792    0.0002 C.ar    1  LIG1       -0.0165
      4 C           2.1849    1.2200   -0.0004 C.ar    1  LIG1        0.0447
      5 H           1.9850   -0.9213    0.0004 H       1  LIG1        0.0662
      6 C           0.1195    2.4666   -0.0004 C.ar    1  LIG1       -0.0158
      7 C           1.5181    2.4458   -0.0008 C.ar    1  LIG1        0.1294
      8 H          -0.4090    3.4165   -0.0003 H       1  LIG1        0.0655
      9 H          -1.9035    1.3287    0.0016 H       1  LIG1        0.0655
     10 O          -0.5709   -1.1108    0.0005 O.3     1  LIG1       -0.4951
     11 C          -1.9830   -0.8853    0.0005 C.3     1  LIG1        0.0788
     12 H          -2.4943   -1.8252    0.0006 H       1  LIG1        0.0660
     13 H          -2.2556   -0.3309    0.8742 H       1  LIG1        0.0660
     14 H          -2.2557   -0.3310   -0.8731 H       1  LIG1        0.0660
     15 O           2.1896    3.5590   -0.0012 O.3     1  LIG1       -0.4944
     16 C           3.5904    3.2714   -0.0014 C.3     1  LIG1        0.0788
     17 H           4.1427    4.1879   -0.0019 H       1  LIG1        0.0660
     18 H           3.8386    2.7059    0.8724 H       1  LIG1        0.0660
     19 H           3.8381    2.7052   -0.8749 H       1  LIG1        0.0660
     20 C           3.4844    1.1831   -0.0005 C.ar    1  LIG1        0.0698
     21 C           4.3714    1.3532   -1.0164 C.ar    1  LIG1        0.0923
     22 C           5.6854    1.2089   -0.4656 C.ar    1  LIG1        0.1627
     23 C           5.5435    0.9586    0.8630 C.ar    1  LIG1        0.1086
     24 N           4.1976    0.9415    1.1519 N.ar    1  LIG1       -0.3489
     25 H           3.8034    0.7809    2.0502 H       1  LIG1        0.1661
     26 C           4.0773    1.5999   -2.2585 C.1     1  LIG1       -0.0638
     27 C           3.8054    1.8278   -3.4061 C.1     1  LIG1       -0.1137
     28 H           3.5633    2.0308   -4.4284 H       1  LIG1        0.1232
     29 O           6.8089    1.3001   -1.1133 O.3     1  LIG1       -0.4917
     30 C           7.3304   -0.0100   -1.3511 C.3     1  LIG1        0.0789
     31 H           8.2551    0.0655   -1.8843 H       1  LIG1        0.0660
     32 H           7.4972   -0.5027   -0.4160 H       1  LIG1        0.0660
     33 H           6.6294   -0.5732   -1.9309 H       1  LIG1        0.0660
     34 C           6.4388    0.7559    1.7835 C.ar    1  LIG1        0.0893
     35 C           6.2979    0.3972    3.0871 C.ar    1  LIG1        0.0701
     36 C           7.6111    0.3129    3.6519 C.ar    1  LIG1        0.1013
     37 C           8.4969    0.6222    2.6681 C.ar    1  LIG1        0.1038
     38 N           7.7834    0.8945    1.5227 N.ar    1  LIG1       -0.3480
     39 H           8.1767    1.1500    0.6463 H       1  LIG1        0.1661
     40 N           5.1757    0.1741    3.7044 N.pl3   1  LIG1       -0.3553
     41 H           4.5093    0.8741    3.4478 H       1  LIG1        0.1424
     42 H           4.8277   -0.7275    3.4478 H       1  LIG1        0.1424
     43 N           8.1660   -0.2787    5.9601 N.1     1  LIG1       -0.1907
     44 C           7.9060   -0.0014    4.8784 C.1     1  LIG1        0.1033
     45 C           9.7953    0.6825    2.6904 C.ar    1  LIG1        0.1739
     46 C          10.7794    0.3566    3.6006 C.ar    1  LIG1        0.0881
     47 C          12.0451    0.6836    2.9778 C.ar    1  LIG1        0.0837
     48 C          11.7504    1.1877    1.7278 C.ar    1  LIG1        0.1099
     49 O          10.3697    1.1970    1.5272 O.2     1  LIG1       -0.4583
     50 H          12.4426    1.6418    0.7254 H       1  LIG1        0.1043
     51 N          10.6283   -0.1461    4.7899 N.pl3   1  LIG1       -0.3540
     52 H           9.6834   -0.4531    4.9045 H       1  LIG1        0.1425
     53 H          11.2473   -0.9231    4.9045 H       1  LIG1        0.1425
     54 C          13.2179    0.5229    3.5153 C.1     1  LIG1       -0.0646
     55 C          14.3015    0.3744    4.0120 C.1     1  LIG1       -0.1138
     56 H          15.2667    0.2421    4.4544 H       1  LIG1        0.1232
@<TRIPOS>BOND
     1    28    27    1
     2    27    26    3
     3    26    21    1
     4    33    30    1
     5    31    30    1
     6    30    29    1
     7    30    32    1
     8    29    22    1
     9    21    22   ar
    10    21    20   ar
    11    19    16    1
    12    14    11    1
    13    22    23   ar
    14    17    16    1
    15    16    15    1
    16    16    18    1
    17    15     7    1
    18     7     6   ar
    19     7     4   ar
    20    20     4    1
    21    20    24   ar
    22     6     8    1
    23     6     3   ar
    24     4     2   ar
    25     1     2   ar
    26     1     3   ar
    27     1    10    1
    28     2     5    1
    29     3     9    1
    30    10    11    1
    31    11    12    1
    32    11    13    1
    33    39    38    1
    34    50    48    1
    35    23    24   ar
    36    23    34    1
    37    24    25    1
    38    38    34   ar
    39    38    37   ar
    40    49    48   ar
    41    49    45   ar
    42    48    47   ar
    43    34    35   ar
    44    37    45    1
    45    37    36   ar
    46    45    46   ar
    47    47    54    1
    48    47    46   ar
    49    35    36   ar
    50    35    40    1
    51    42    40    1
    52    41    40    1
    53    54    55    3
    54    46    51    1
    55    36    44    1
    56    55    56    1
    57    51    52    1
    58    51    53    1
    59    44    43    3
