@<TRIPOS>MOLECULE
mol_data/noopt/geoms/mol2/4ll12ha(70)13di(190)6fl(330).out
 55 58 0 0 0
SMALL
GASTEIGER

@<TRIPOS>ATOM
      1 C           0.0509    0.0309    0.0002 C.ar    1  LIG1        0.1210
      2 C           1.4592    0.0309    0.0002 C.ar    1  LIG1       -0.0057
      3 C          -0.6045    1.2792    0.0002 C.ar    1  LIG1       -0.0165
      4 C           2.1849    1.2200   -0.0004 C.ar    1  LIG1        0.0641
      5 H           1.9850   -0.9213    0.0004 H       1  LIG1        0.0662
      6 C           0.1195    2.4666   -0.0004 C.ar    1  LIG1       -0.0158
      7 C           1.5181    2.4458   -0.0008 C.ar    1  LIG1        0.1310
      8 H          -0.4090    3.4165   -0.0003 H       1  LIG1        0.0655
      9 H          -1.9035    1.3287    0.0016 H       1  LIG1        0.0655
     10 O          -0.5709   -1.1108    0.0005 O.3     1  LIG1       -0.4951
     11 C          -1.9830   -0.8853    0.0005 C.3     1  LIG1        0.0788
     12 H          -2.4943   -1.8252    0.0006 H       1  LIG1        0.0660
     13 H          -2.2556   -0.3309    0.8742 H       1  LIG1        0.0660
     14 H          -2.2557   -0.3310   -0.8731 H       1  LIG1        0.0660
     15 O           2.1896    3.5590   -0.0012 O.3     1  LIG1       -0.4944
     16 C           3.5904    3.2714   -0.0014 C.3     1  LIG1        0.0788
     17 H           4.1427    4.1879   -0.0019 H       1  LIG1        0.0660
     18 H           3.8386    2.7059    0.8724 H       1  LIG1        0.0660
     19 H           3.8381    2.7052   -0.8749 H       1  LIG1        0.0660
     20 C           3.4844    1.1831   -0.0005 C.ar    1  LIG1        0.1599
     21 C           4.4569    0.7841    0.8928 C.ar    1  LIG1        0.0717
     22 C           5.7326    1.0159    0.2481 C.ar    1  LIG1        0.0070
     23 C           5.4549    1.5412   -0.9971 C.ar    1  LIG1        0.1549
     24 O           4.0754    1.6538   -1.1739 O.2     1  LIG1       -0.4513
     25 N           4.2892    0.2935    2.0850 N.pl3   1  LIG1       -0.3550
     26 H           3.3337    0.0227    2.2026 H       1  LIG1        0.1424
     27 H           4.8789   -0.5055    2.2026 H       1  LIG1        0.1424
     28 H           6.8991    0.7677    0.7654 H       1  LIG1        0.0675
     29 C           6.1616    1.9428   -2.0116 C.ar    1  LIG1        0.1004
     30 C           6.0245    3.0395   -2.8032 C.ar    1  LIG1        0.0835
     31 C           7.0746    2.9988   -3.7760 C.ar    1  LIG1       -0.0069
     32 C           7.8082    1.8800   -3.5350 C.ar    1  LIG1        0.0564
     33 N           7.2525    1.2303   -2.4560 N.ar    1  LIG1       -0.3504
     34 H           7.5863    0.3818   -2.0602 H       1  LIG1        0.1660
     35 N           4.2973    4.7603   -2.5993 N.1     1  LIG1       -0.1908
     36 C           5.1068    3.9538   -2.6949 C.1     1  LIG1        0.1017
     37 C           7.2901    3.8696   -4.7173 C.3     1  LIG1       -0.0365
     38 H           6.5889    4.6728   -4.6275 H       1  LIG1        0.0279
     39 H           7.1737    3.3995   -5.6715 H       1  LIG1        0.0279
     40 H           8.2850    4.2529   -4.6275 H       1  LIG1        0.0279
     41 C          10.1188    1.9985   -3.9419 C.ar    1  LIG1        0.2219
     42 C           8.8565    1.4112   -4.1444 C.ar    1  LIG1        0.0634
     43 C           8.7600    0.3201   -5.0100 C.ar    1  LIG1       -0.0042
     44 C           9.9169   -0.1434   -5.6386 C.ar    1  LIG1        0.1390
     45 C          11.1339    0.5106   -5.3723 C.ar    1  LIG1        0.0730
     46 N          11.2451    1.5643   -4.5400 N.ar    1  LIG1       -0.2172
     47 H           7.7904   -0.1642   -5.1938 H       1  LIG1        0.0663
     48 H          12.2381    0.1160   -5.9333 H       1  LIG1        0.0868
     49 O          10.2593    3.0162   -3.1453 O.3     1  LIG1       -0.4919
     50 H           9.3975    3.3908   -2.9490 H       1  LIG1        0.2937
     51 O           9.8796   -1.1558   -6.4534 O.3     1  LIG1       -0.4936
     52 C           8.5188   -1.4777   -6.7525 C.3     1  LIG1        0.0789
     53 H           8.4885   -2.3109   -7.4232 H       1  LIG1        0.0660
     54 H           8.0046   -1.7289   -5.8484 H       1  LIG1        0.0660
     55 H           8.0450   -0.6344   -7.2098 H       1  LIG1        0.0660
@<TRIPOS>BOND
     1    53    52    1
     2    55    52    1
     3    52    51    1
     4    52    54    1
     5    51    44    1
     6    48    45    1
     7    39    37    1
     8    44    45   ar
     9    44    43   ar
    10    45    46   ar
    11    47    43    1
    12    43    42   ar
    13    37    40    1
    14    37    38    1
    15    37    31    1
    16    46    41   ar
    17    42    41   ar
    18    42    32    1
    19    41    49    1
    20    31    32   ar
    21    31    30   ar
    22    32    33   ar
    23    49    50    1
    24    30    36    1
    25    30    29   ar
    26    36    35    3
    27    33    34    1
    28    33    29   ar
    29    29    23    1
    30    24    23   ar
    31    24    20   ar
    32    23    22   ar
    33    19    16    1
    34    14    11    1
    35    17    16    1
    36    16    15    1
    37    16    18    1
    38    15     7    1
    39     7     6   ar
    40     7     4   ar
    41    20     4    1
    42    20    21   ar
    43     6     8    1
    44     6     3   ar
    45     4     2   ar
    46     1     3   ar
    47     1     2   ar
    48     1    10    1
    49     3     9    1
    50     2     5    1
    51    10    11    1
    52    11    12    1
    53    11    13    1
    54    22    28    1
    55    22    21   ar
    56    21    25    1
    57    25    26    1
    58    25    27    1
