@<TRIPOS>MOLECULE
mol_data/noopt/geoms/mol2/4ll12dh(20)6ea(10)12ef(140).out
 51 52 0 0 0
SMALL
GASTEIGER

@<TRIPOS>ATOM
      1 C           0.0509    0.0309    0.0002 C.ar    1  LIG1        0.1209
      2 C           1.4592    0.0309    0.0002 C.ar    1  LIG1       -0.0085
      3 C          -0.6045    1.2792    0.0002 C.ar    1  LIG1       -0.0163
      4 C           2.1849    1.2200   -0.0004 C.ar    1  LIG1        0.0341
      5 H           1.9850   -0.9213    0.0004 H       1  LIG1        0.0661
      6 C           0.1195    2.4666   -0.0004 C.ar    1  LIG1       -0.0109
      7 C           1.5181    2.4458   -0.0008 C.ar    1  LIG1        0.1869
      8 H          -0.4090    3.4165   -0.0003 H       1  LIG1        0.0657
      9 H          -1.9035    1.3287    0.0016 H       1  LIG1        0.0655
     10 O          -0.5709   -1.1108    0.0005 O.3     1  LIG1       -0.4951
     11 C          -1.9830   -0.8853    0.0005 C.3     1  LIG1        0.0788
     12 H          -2.4943   -1.8252    0.0006 H       1  LIG1        0.0660
     13 H          -2.2556   -0.3309    0.8742 H       1  LIG1        0.0660
     14 H          -2.2557   -0.3310   -0.8731 H       1  LIG1        0.0660
     15 O           2.1896    3.5590   -0.0012 O.3     1  LIG1       -0.2873
     16 C           3.5904    3.2714   -0.0014 C.3     2  LIG2       -0.0531
     17 H           4.1427    4.1879   -0.0019 H       1  LIG1        0.0265
     18 H           3.8386    2.7059    0.8724 H       1  LIG1        0.0265
     19 H           3.8381    2.7052   -0.8749 H       1  LIG1        0.2922
     20 C           3.4844    1.1831   -0.0005 C.2     1  LIG1        0.0143
     21 C           4.4412    0.2338    0.2933 C.2     1  LIG1        0.0843
     22 C           5.7283    0.8627    0.0811 C.2     1  LIG1        0.0854
     23 C           5.4724    2.1551   -0.3285 C.2     1  LIG1        0.1484
     24 O           4.0960    2.3766   -0.3867 O.2     1  LIG1       -0.5042
     25 N           4.0862   -2.0716    1.0315 N.1     1  LIG1       -0.1908
     26 C           4.2526   -0.9912    0.6855 C.1     1  LIG1        0.1018
     27 N           6.8857    0.2958    0.2513 N.pl3   1  LIG1       -0.3541
     28 H           6.8787   -0.6100   -0.1725 H       1  LIG1        0.1425
     29 H           7.5970    0.8565   -0.1725 H       1  LIG1        0.1425
     30 C           5.5853    4.3883   -1.0482 C.ar    1  LIG1        0.1246
     31 C           6.1969    3.1815   -0.6623 C.ar    1  LIG1        0.0521
     32 C           7.5913    3.1159   -0.6469 C.ar    1  LIG1       -0.0462
     33 C           8.3214    4.2475   -1.0144 C.ar    1  LIG1       -0.0319
     34 C           7.6189    5.4086   -1.3855 C.ar    1  LIG1        0.1087
     35 N           6.2741    5.4895   -1.4058 N.ar    1  LIG1       -0.2346
     36 H           8.1046    2.1897   -0.3519 H       1  LIG1        0.0626
     37 C           4.2903    4.4984   -1.0782 C.1     1  LIG1       -0.0491
     38 C           3.0938    4.6002   -1.1059 C.1     1  LIG1       -0.1124
     39 H           2.0279    4.6908   -1.1306 H       1  LIG1        0.1232
     40 H           9.6214    4.2371   -1.0166 H       1  LIG1        0.0640
     41 C           8.2541    6.4875   -1.7355 C.ar    1  LIG1        0.1719
     42 C           8.1412    7.8320   -1.4485 C.ar    1  LIG1        0.1133
     43 C           9.1893    8.5036   -2.1883 C.ar    1  LIG1        0.1709
     44 C           9.8736    7.5244   -2.8786 C.ar    1  LIG1        0.1352
     45 O           9.3158    6.2728   -2.6156 O.2     1  LIG1       -0.4564
     46 H          10.8871    7.5012   -3.6924 H       1  LIG1        0.1068
     47 C           7.2741    8.4095   -0.6709 C.1     1  LIG1       -0.0621
     48 C           6.4730    8.9431    0.0477 C.1     1  LIG1       -0.1137
     49 H           5.7593    9.4185    0.6877 H       1  LIG1        0.1232
     50 O           9.4189    9.7832   -2.1846 O.3     1  LIG1       -0.5028
     51 H           8.5847   10.2584   -2.1837 H       1  LIG1        0.2923
@<TRIPOS>BOND
     1    46    44    1
     2    44    45   ar
     3    44    43   ar
     4    45    41   ar
     5    43    50    1
     6    43    42   ar
     7    50    51    1
     8    41    42   ar
     9    41    34    1
    10    42    47    1
    11    35    34   ar
    12    35    30   ar
    13    34    33   ar
    14    39    38    1
    15    38    37    3
    16    37    30    1
    17    30    31   ar
    18    40    33    1
    19    33    32   ar
    20    19    24    1
    21    14    11    1
    22    47    48    3
    23    31    32   ar
    24    31    23    1
    25    32    36    1
    26    24    23    1
    27    23    22    2
    28    29    27    1
    29    28    27    1
    30    17    16    1
    31    16    18    1
    32    15     7    1
    33     7     4   ar
    34     7     6   ar
    35    20     4    1
    36    20    21    2
    37     4     2   ar
    38     6     8    1
    39     6     3   ar
    40     1     3   ar
    41     1     2   ar
    42     1    10    1
    43     3     9    1
    44     2     5    1
    45    10    11    1
    46    11    12    1
    47    11    13    1
    48    48    49    1
    49    22    27    1
    50    22    21    1
    51    21    26    1
    52    26    25    3
