@<TRIPOS>MOLECULE
mol_data/noopt/geoms/mol2/4ll12lf-12ae4dd-12fe-12hf-4ai13ii-.out
 100 104 0 0 0
SMALL
GASTEIGER

@<TRIPOS>ATOM
      1 C           0.0509    0.0309    0.0002 C.ar    1  LIG1        0.1287
      2 C           1.4592    0.0309    0.0002 C.ar    1  LIG1        0.0395
      3 C          -0.6045    1.2792    0.0002 C.ar    1  LIG1       -0.0157
      4 C           2.1849    1.2200   -0.0004 C.ar    1  LIG1        0.0446
      5 H           1.9850   -0.9213    0.0004 H       2  LIG2        0.0194
      6 C           0.1195    2.4666   -0.0004 C.ar    1  LIG1       -0.0108
      7 C           1.5181    2.4458   -0.0008 C.ar    1  LIG1        0.1876
      8 H          -0.4090    3.4165   -0.0003 H       1  LIG1        0.0657
      9 H          -1.9035    1.3287    0.0016 H       1  LIG1        0.0655
     10 O          -0.5709   -1.1108    0.0005 O.3     1  LIG1       -0.4945
     11 C          -1.9830   -0.8853    0.0005 C.3     1  LIG1        0.0788
     12 H          -2.4943   -1.8252    0.0006 H       1  LIG1        0.0660
     13 H          -2.2556   -0.3309    0.8742 H       1  LIG1        0.0660
     14 H          -2.2557   -0.3310   -0.8731 H       1  LIG1        0.0660
     15 O           2.1896    3.5590   -0.0012 O.3     1  LIG1       -0.2872
     16 C           3.5904    3.2714   -0.0014 C.3     2  LIG2       -0.0309
     17 H           4.1427    4.1879   -0.0019 H       1  LIG1        0.0309
     18 H           3.8386    2.7059    0.8724 H       0  HOH0        0.2052
     19 H           3.8381    2.7052   -0.8749 H       0  HOH0        0.2052
     20 C           3.4844    1.1831   -0.0005 C.2     1  LIG1        0.0485
     21 C           4.4399    0.1882    0.0142 C.2     1  LIG1        0.2292
     22 C           5.7279    0.8500    0.0034 C.2     1  LIG1        0.1758
     23 C           5.4738    2.2059   -0.0172 C.2     1  LIG1        0.0762
     24 O           4.0977    2.4365   -0.0202 O.3     3  HOH3       -0.4105
     25 O           4.2495   -1.0976    0.0341 O.2     1  LIG1       -0.2833
     26 C           2.8462   -1.3723    0.0413 C.3     4  LIG4       -0.0776
     27 H           2.6899   -2.4307    0.0574 H       2  LIG2        0.0194
     28 H           2.4011   -0.9328    0.9095 H       2  LIG2        0.0194
     29 H           2.3973   -0.9589   -0.8376 H       2  LIG2        0.0194
     30 O           6.8846    0.2566    0.0119 O.2     1  LIG1       -0.5027
     31 H           7.5827    0.9156    0.0140 H       1  LIG1        0.2923
     32 C           6.1998    3.2842   -0.0341 C.2     1  LIG1        0.1351
     33 C           7.5516    3.5597   -0.0321 C.2     1  LIG1       -0.0040
     34 C           7.6810    5.0017   -0.0592 C.2     1  LIG1        0.0516
     35 C           6.3992    5.5119   -0.0761 C.3     1  LIG1        0.2161
     36 O           5.4685    4.4725   -0.0612 O.2     1  LIG1       -0.4702
     37 H           8.5364    2.7114   -0.0102 H       1  LIG1        0.0665
     38 C           8.8009    5.6618   -0.0658 C.1     1  LIG1       -0.0951
     39 C           9.8357    6.2718   -0.0719 C.2     1  LIG1        0.0549
     40 H          10.7574    6.8152   -0.0774 H       1  LIG1        0.0888
     41 C           6.7123    7.8369   -0.0937 C.ar    1  LIG1       -0.0091
     42 C           6.0970    9.1034   -0.1211 C.ar    1  LIG1       -0.0439
     43 C           5.8762    6.7017   -0.1019 C.ar    1  LIG1        0.0121
     44 C           4.7107    9.2361   -0.1557 C.ar    1  LIG1        0.0387
     45 H           6.7235    9.9926   -0.1152 H       1  LIG1        0.0629
     46 C           4.4922    6.8337   -0.1364 C.ar    1  LIG1       -0.0359
     47 C           3.8998    8.1005   -0.1636 C.ar    1  LIG1        0.0629
     48 H           3.8690    5.9431   -0.1419 H       1  LIG1        0.0635
     49 N           9.1556    7.7241   -0.0345 N.pl3   1  LIG1       -0.2336
     50 C           8.0106    7.7770   -0.0623 C.3     1  LIG1        0.1377
     51 N           1.4639    8.3210   -0.2239 N.1     1  LIG1       -0.1908
     52 C           2.6055    8.2177   -0.1957 C.1     1  LIG1        0.0999
     53 C           4.1762   10.4208   -0.1804 C.ar    1  LIG1        0.1795
     54 C           4.6534   11.7152   -0.1843 C.ar    1  LIG1        0.1792
     55 C           3.4956   12.5841   -0.2191 C.ar    1  LIG1        0.1156
     56 C           2.3871   11.7627   -0.2343 C.ar    1  LIG1        0.1915
     57 O           2.7809   10.4244   -0.2110 O.2     1  LIG1       -0.4466
     58 O           5.8931   12.1062   -0.1616 O.3     1  LIG1       -0.5024
     59 H           5.9263   13.0656   -0.1559 H       1  LIG1        0.2923
     60 C           3.5238   13.8837   -0.2329 C.1     1  LIG1       -0.0621
     61 C           3.5498   15.0846   -0.2456 C.1     1  LIG1       -0.1137
     62 H           3.5730   16.1543   -0.2569 H       1  LIG1        0.1232
     63 C           1.1001   11.9442   -0.2643 C.ar    1  LIG1        0.1962
     64 C           0.2617   13.0394   -0.2870 C.ar    1  LIG1        0.1169
     65 C          -1.0917   12.5252   -0.3163 C.ar    1  LIG1        0.1846
     66 C          -0.9904   11.1492   -0.3096 C.ar    1  LIG1        0.1789
     67 O           0.3510   10.7667   -0.2778 O.2     1  LIG1       -0.4460
     68 N           0.5942   14.2962   -0.2833 N.pl3   1  LIG1       -0.3521
     69 H           1.4691   14.4109   -0.7538 H       1  LIG1        0.1425
     70 H          -0.1095   14.8285   -0.7538 H       1  LIG1        0.1425
     71 O          -2.1748   13.2438   -0.3433 O.3     1  LIG1       -0.5020
     72 H          -2.9420   12.6668   -0.3500 H       1  LIG1        0.2924
     73 C          -3.2183   10.4145   -0.3336 C.ar    1  LIG1       -0.0503
     74 C          -4.0884    9.3073   -0.3494 C.ar    1  LIG1       -0.0517
     75 C          -1.8319   10.1585   -0.3257 C.ar    1  LIG1        0.0213
     76 C          -3.6018    8.0020   -0.3577 C.ar    1  LIG1        0.0015
     77 H          -5.1620    9.4822   -0.3556 H       1  LIG1        0.0624
     78 C          -1.3456    8.8556   -0.3339 C.ar    1  LIG1       -0.0474
     79 C          -2.2260    7.7689   -0.3501 C.ar    1  LIG1       -0.0407
     80 H          -0.2722    8.6842   -0.3274 H       1  LIG1        0.0627
     81 H          -3.7319   11.6087   -0.3268 H       1  LIG1        0.0625
     82 C          -1.7655    6.5528   -0.3575 C.3     1  LIG1       -0.0391
     83 H          -0.8211    6.5260    0.1448 H       1  LIG1        0.0278
     84 H          -1.6412    6.2247   -1.3684 H       1  LIG1        0.0278
     85 H          -2.4552    5.9072    0.1448 H       1  LIG1        0.0278
     86 C          -4.4337    7.0031   -0.3724 C.ar    1  LIG1        0.0499
     87 C          -5.7930    6.9872   -0.3662 C.ar    1  LIG1       -0.0223
     88 C          -6.2047    5.6158   -0.3888 C.ar    1  LIG1       -0.0297
     89 C          -5.0790    4.8541   -0.4097 C.ar    1  LIG1        0.0053
     90 N          -3.9924    5.6994   -0.3993 N.ar    1  LIG1       -0.3602
     91 H          -3.0404    5.4137   -0.4101 H       1  LIG1        0.1654
     92 H          -4.9349    3.5623   -0.4344 H       1  LIG1        0.0810
     93 C          -6.5724    8.0277   -0.3424 C.3     1  LIG1       -0.0375
     94 H          -7.4799    7.7820    0.1685 H       1  LIG1        0.0278
     95 H          -6.7973    8.3279   -1.3445 H       1  LIG1        0.0278
     96 H          -6.0813    8.8295    0.1684 H       1  LIG1        0.0278
     97 C          -7.4285    5.1764   -0.3898 C.3     1  LIG1       -0.0380
     98 H          -7.4693    4.2335    0.1143 H       1  LIG1        0.0278
     99 H          -7.7635    5.0560   -1.3990 H       1  LIG1        0.0278
    100 H          -8.0598    5.8780    0.1142 H       1  LIG1        0.0278
@<TRIPOS>BOND
     1    99    97    1
     2    84    82    1
     3    95    93    1
     4    19    24    1
     5    14    11    1
     6    29    26    1
     7    70    68    1
     8    69    68    1
     9    92    89    1
    10    91    90    1
    11    89    90   ar
    12    89    88   ar
    13    90    86   ar
    14    97    88    1
    15    97   100    1
    16    97    98    1
    17    88    87   ar
    18    86    87   ar
    19    86    76    1
    20    87    93    1
    21    76    79   ar
    22    76    74   ar
    23    82    79    1
    24    82    85    1
    25    82    83    1
    26    77    74    1
    27    79    78   ar
    28    72    71    1
    29    74    73   ar
    30    71    65    1
    31    93    96    1
    32    93    94    1
    33    78    80    1
    34    78    75   ar
    35    73    81    1
    36    73    75   ar
    37    75    66    1
    38    65    66   ar
    39    65    64   ar
    40    66    67   ar
    41    64    68    1
    42    64    63   ar
    43    67    63   ar
    44    63    56    1
    45    62    61    1
    46    61    60    3
    47    56    55   ar
    48    56    57   ar
    49    60    55    1
    50    51    52    3
    51    55    54   ar
    52    57    53   ar
    53    52    47    1
    54    54    53   ar
    55    54    58    1
    56    53    44    1
    57    47    44   ar
    58    47    46   ar
    59    58    59    1
    60    44    42   ar
    61    48    46    1
    62    46    43   ar
    63    42    45    1
    64    42    41   ar
    65    43    41   ar
    66    43    35    1
    67    41    50    1
    68    40    39    1
    69    35    36    1
    70    35    34    1
    71    39    38    2
    72    39    49    1
    73    38    34    2
    74    50    49    1
    75    36    32    1
    76    34    33    1
    77    32    33    2
    78    32    23    1
    79    33    37    1
    80    24    18    1
    81    23    22    2
    82    17    16    1
    83    15     7    1
    84     7     6   ar
    85     7     4   ar
    86    20     4    1
    87    20    21    2
    88     6     8    1
    89     6     3   ar
    90     4     2   ar
    91     1     2   ar
    92     1     3   ar
    93     1    10    1
    94     3     9    1
    95     5    26    1
    96    10    11    1
    97    11    12    1
    98    11    13    1
    99    22    30    1
   100    22    21    1
   101    30    31    1
   102    21    25    1
   103    26    27    1
   104    26    28    1
