@<TRIPOS>MOLECULE
mol_data/noopt/geoms/mol2/4ll4ll-.out
 38 35 0 0 0
SMALL
GASTEIGER

@<TRIPOS>ATOM
      1 C           0.0509    0.0309    0.0002 C.ar    1  LIG1        0.1209
      2 C           1.4592    0.0309    0.0002 C.ar    1  LIG1       -0.0086
      3 C          -0.6045    1.2792    0.0002 C.ar    1  LIG1       -0.0163
      4 C           2.1849    1.2200   -0.0004 C.ar    1  LIG1        0.0329
      5 H           1.9850   -0.9213    0.0004 H       1  LIG1        0.0661
      6 C           0.1195    2.4666   -0.0004 C.ar    1  LIG1       -0.0109
      7 C           1.5181    2.4458   -0.0008 C.ar    1  LIG1        0.1869
      8 H          -0.4090    3.4165   -0.0003 H       1  LIG1        0.0657
      9 H          -1.9035    1.3287    0.0016 H       1  LIG1        0.0655
     10 O          -0.5709   -1.1108    0.0005 O.3     1  LIG1       -0.4951
     11 C          -1.9830   -0.8853    0.0005 C.3     1  LIG1        0.0788
     12 H          -2.4943   -1.8252    0.0006 H       1  LIG1        0.0660
     13 H          -2.2556   -0.3309    0.8742 H       1  LIG1        0.0660
     14 H          -2.2557   -0.3310   -0.8731 H       1  LIG1        0.0660
     15 O           2.1896    3.5590   -0.0012 O.3     1  LIG1       -0.2873
     16 C           3.5904    3.2714   -0.0014 C.3     1  LIG1       -0.0091
     17 H           4.1427    4.1879   -0.0019 H       2  LIG2        0.0194
     18 H           3.8386    2.7059    0.8724 H       1  LIG1        0.0271
     19 H           3.8381    2.7052   -0.8749 H       1  LIG1        0.0271
     20 C           4.2212    2.3851    0.0002 C.3     1  LIG1       -0.0452
     21 C           5.6264    2.2916    0.0016 C.3     1  LIG1       -0.0053
     22 C           3.4843    1.1831   -0.0005 C.2     1  LIG1       -0.0027
     23 C           6.2715    1.0569    0.0017 C.2     1  LIG1       -0.0380
     24 H           6.2143    3.2067    0.0024 H       1  LIG1        0.0356
     25 C           4.1278   -0.0498   -0.0004 C.2     1  LIG1       -0.0118
     26 C           5.5247   -0.1219    0.0006 C.2     1  LIG1        0.1171
     27 H           3.5374   -0.9625   -0.0009 H       1  LIG1        0.0660
     28 H           7.5706    1.0074    0.0029 H       1  LIG1        0.0611
     29 O           3.6766    3.5656   -0.0001 O.3     2  LIG2        0.0000
     30 C           4.7008    4.5636   -0.0003 C.3     3  LIG3       -0.0776
     31 H           4.2522    5.5351   -0.0007 H       2  LIG2        0.0194
     32 H           5.3081    4.4516    0.8736 H       2  LIG2        0.0194
     33 H           5.3084    4.4510   -0.8737 H       2  LIG2        0.0194
     34 O           6.1208   -1.2773    0.0008 O.2     1  LIG1       -0.4954
     35 C           5.1417   -2.3195    0.0008 C.3     1  LIG1        0.0788
     36 H           5.6327   -3.2702    0.0009 H       1  LIG1        0.0660
     37 H           4.5298   -2.2340    0.8745 H       1  LIG1        0.0660
     38 H           4.5298   -2.2341   -0.8728 H       1  LIG1        0.0660
@<TRIPOS>BOND
     1    19    20    1
     2    33    30    1
     3    14    11    1
     4    38    35    1
     5    17    30    1
     6    16    20    1
     7    15     7    1
     8    27    25    1
     9     7     4   ar
    10     7     6   ar
    11    31    30    1
    12    22    25    2
    13    22     4    1
    14    25    26    1
    15     4     2   ar
    16     6     8    1
    17     6     3   ar
    18    30    32    1
    19    20    18    1
    20     1     2   ar
    21     1     3   ar
    22     1    10    1
    23     2     5    1
    24     3     9    1
    25    10    11    1
    26    11    12    1
    27    11    13    1
    28    26    34    1
    29    26    23    2
    30    34    35    1
    31    35    36    1
    32    35    37    1
    33    21    23    1
    34    21    24    1
    35    23    28    1
