@<TRIPOS>MOLECULE
mol_data/noopt/geoms/mol2/4ll4ll-4ll-4ll.out
 74 69 0 0 0
SMALL
GASTEIGER

@<TRIPOS>ATOM
      1 C           0.0509    0.0309    0.0002 C.ar    1  LIG1        0.1209
      2 C           1.4592    0.0309    0.0002 C.ar    1  LIG1       -0.0086
      3 C          -0.6045    1.2792    0.0002 C.ar    1  LIG1       -0.0163
      4 C           2.1849    1.2200   -0.0004 C.ar    1  LIG1        0.0326
      5 H           1.9850   -0.9213    0.0004 H       1  LIG1        0.0661
      6 C           0.1195    2.4666   -0.0004 C.ar    1  LIG1       -0.0109
      7 C           1.5181    2.4458   -0.0008 C.ar    1  LIG1        0.1869
      8 H          -0.4090    3.4165   -0.0003 H       1  LIG1        0.0657
      9 H          -1.9035    1.3287    0.0016 H       1  LIG1        0.0655
     10 O          -0.5709   -1.1108    0.0005 O.3     1  LIG1       -0.4951
     11 C          -1.9830   -0.8853    0.0005 C.3     1  LIG1        0.0788
     12 H          -2.4943   -1.8252    0.0006 H       1  LIG1        0.0660
     13 H          -2.2556   -0.3309    0.8742 H       1  LIG1        0.0660
     14 H          -2.2557   -0.3310   -0.8731 H       1  LIG1        0.0660
     15 O           2.1896    3.5590   -0.0012 O.3     1  LIG1       -0.2873
     16 C           3.5904    3.2714   -0.0014 C.3     1  LIG1       -0.0091
     17 H           4.1427    4.1879   -0.0019 H       2  LIG2        0.0194
     18 H           3.8386    2.7059    0.8724 H       1  LIG1        0.0271
     19 H           3.8381    2.7052   -0.8749 H       1  LIG1        0.0271
     20 C           4.2212    2.3851    0.0002 C.3     1  LIG1       -0.0452
     21 C           5.6264    2.2916    0.0016 C.3     1  LIG1       -0.0021
     22 C           3.4843    1.1831   -0.0005 C.2     1  LIG1       -0.0073
     23 C           6.2715    1.0569    0.0017 C.2     1  LIG1       -0.0240
     24 H           6.2143    3.2067    0.0024 H       1  LIG1        0.0359
     25 C           4.1278   -0.0498   -0.0004 C.2     1  LIG1       -0.0367
     26 C           5.5247   -0.1219    0.0006 C.3     1  LIG1        0.1459
     27 H           3.5374   -0.9625   -0.0009 H       1  LIG1        0.0611
     28 O           3.6766    3.5656   -0.0001 O.3     2  LIG2        0.0000
     29 C           4.7008    4.5636   -0.0003 C.3     3  LIG3       -0.0776
     30 H           4.2522    5.5351   -0.0007 H       2  LIG2        0.0194
     31 H           5.3081    4.4516    0.8736 H       2  LIG2        0.0194
     32 H           5.3084    4.4510   -0.8737 H       2  LIG2        0.0194
     33 O           6.1208   -1.2773    0.0008 O.3     1  LIG1       -0.3646
     34 C           5.1417   -2.3195    0.0008 C.3     1  LIG1        0.0382
     35 H           5.6327   -3.2702    0.0009 H       1  LIG1        0.0524
     36 H           4.5298   -2.2340    0.8745 H       1  LIG1        0.0524
     37 H           4.5298   -2.2341   -0.8728 H       1  LIG1        0.0524
     38 C           8.3190    2.2022    0.0043 C.3     1  LIG1        0.1459
     39 C           9.7232    2.0950    0.0071 C.2     1  LIG1       -0.0367
     40 C           7.5705    1.0074    0.0029 C.2     1  LIG1       -0.0240
     41 C          10.3563    0.8541    0.0079 C.2     1  LIG1       -0.0073
     42 H          10.3199    3.0044    0.0084 H       1  LIG1        0.0611
     43 C           8.2020   -0.2317    0.0037 C.3     1  LIG1       -0.0021
     44 C           9.5982   -0.3174    0.0061 C.3     3  LIG3       -0.0309
     45 H           7.6028   -1.1386    0.0026 H       1  LIG1        0.0359
     46 O           7.7859    3.3879    0.0034 O.3     1  LIG1       -0.3646
     47 C           8.8197    4.3760    0.0030 C.3     1  LIG1        0.0382
     48 H           8.3805    5.3517    0.0022 H       1  LIG1        0.0524
     49 H           9.4258    4.2584    0.8770 H       1  LIG1        0.0524
     50 H           9.4263    4.2571   -0.8703 H       1  LIG1        0.0524
     51 O          10.1830   -1.4784    0.0069 O.3     4  HOH4       -0.2528
     52 C           9.1938   -2.5111    0.0072 C.3     5  LIG5       -0.0681
     53 H           9.6755   -3.4665    0.0077 H       4  HOH4        0.0227
     54 H           8.5826   -2.4194    0.8807 H       4  HOH4        0.0227
     55 H           8.5830   -2.4202   -0.8666 H       4  HOH4        0.0227
     56 C          12.2980   -0.4626    0.0125 C.ar    1  LIG1        0.1869
     57 C          13.7062   -0.4762    0.0167 C.ar    1  LIG1       -0.0109
     58 C          11.6548    0.7920    0.0104 C.ar    1  LIG1        0.0326
     59 C          14.4434    0.7058    0.0181 C.ar    1  LIG1       -0.0163
     60 H          14.2228   -1.4335    0.0186 H       1  LIG1        0.0657
     61 C          12.3902    1.9724    0.0118 C.ar    1  LIG1       -0.0086
     62 C          13.7886    1.9380    0.0156 C.ar    1  LIG1        0.1209
     63 H          11.8710    2.9273    0.0102 H       1  LIG1        0.0661
     64 H          15.7425    0.6563    0.0219 H       1  LIG1        0.0655
     65 O          11.6652   -1.5982    0.0110 O.3     1  LIG1       -0.2873
     66 C          10.2554   -1.3590    0.0104 C.3     3  LIG3       -0.0309
     67 H           9.7349   -2.2939    0.0091 H       0  HOH0        0.2528
     68 H           9.9875   -0.8030    0.8846 H       3  LIG3        0.0309
     69 H           9.9886   -0.8010   -0.8627 H       3  LIG3        0.0309
     70 O          14.4708    3.0446    0.0171 O.3     1  LIG1       -0.4951
     71 C          15.8688    2.7435    0.0176 C.3     1  LIG1        0.0788
     72 H          16.4299    3.6545    0.0186 H       1  LIG1        0.0660
     73 H          16.1108    2.1745    0.8909 H       1  LIG1        0.0660
     74 H          16.1117    2.1760   -0.8564 H       1  LIG1        0.0660
@<TRIPOS>BOND
     1    19    20    1
     2    32    29    1
     3    14    11    1
     4    37    34    1
     5    50    47    1
     6    55    52    1
     7    69    44    1
     8    74    71    1
     9    17    29    1
    10    16    20    1
    11    15     7    1
    12    27    25    1
    13     7     6   ar
    14     7     4   ar
    15    30    29    1
    16    22    25    2
    17    22     4    1
    18    25    26    1
    19     6     8    1
    20     6     3   ar
    21     4     2   ar
    22    29    31    1
    23    20    18    1
    24     1     2   ar
    25     1     3   ar
    26     1    10    1
    27     2     5    1
    28     3     9    1
    29    10    11    1
    30    11    12    1
    31    11    13    1
    32    26    33    1
    33    26    23    1
    34    33    34    1
    35    34    35    1
    36    34    36    1
    37    21    23    1
    38    21    24    1
    39    23    40    2
    40    48    47    1
    41    45    43    1
    42    40    43    1
    43    40    38    1
    44    47    46    1
    45    47    49    1
    46    46    38    1
    47    38    39    1
    48    44    66    1
    49    51    67    1
    50    39    41    2
    51    39    42    1
    52    52    53    1
    53    52    54    1
    54    41    58    1
    55    63    61    1
    56    58    61   ar
    57    58    56   ar
    58    66    68    1
    59    65    56    1
    60    61    62   ar
    61    56    57   ar
    62    62    70    1
    63    62    59   ar
    64    57    59   ar
    65    57    60    1
    66    70    71    1
    67    71    72    1
    68    71    73    1
    69    59    64    1
