@<TRIPOS>MOLECULE
mol_data/noopt/geoms/mol2/4ll4ll4ll4ll-.out
 74 63 0 0 0
SMALL
GASTEIGER

@<TRIPOS>ATOM
      1 C           0.0509    0.0309    0.0002 C.2     1  LIG1        0.1616
      2 C           1.4592    0.0309    0.0002 C.3     2  LIG2       -0.0681
      3 C          -0.6045    1.2792    0.0002 C.2     1  LIG1       -0.0127
      4 C           2.1849    1.2200   -0.0004 C.2     1  LIG1        0.0393
      5 H           1.9850   -0.9213    0.0004 H       1  LIG1        0.0227
      6 C           0.1195    2.4666   -0.0004 C.2     1  LIG1       -0.0107
      7 C           1.5181    2.4458   -0.0008 C.2     1  LIG1        0.1872
      8 H          -0.4090    3.4165   -0.0003 H       1  LIG1        0.0657
      9 H          -1.9035    1.3287    0.0016 H       1  LIG1        0.0656
     10 O          -0.5709   -1.1108    0.0005 O.2     1  LIG1       -0.4915
     11 C          -1.9830   -0.8853    0.0005 C.3     1  LIG1        0.0790
     12 H          -2.4943   -1.8252    0.0006 H       1  LIG1        0.0660
     13 H          -2.2556   -0.3309    0.8742 H       1  LIG1        0.0660
     14 H          -2.2557   -0.3310   -0.8731 H       1  LIG1        0.0660
     15 O           2.1896    3.5590   -0.0012 O.2     1  LIG1       -0.2872
     16 C           3.5904    3.2714   -0.0014 C.3     2  LIG2       -0.0348
     17 H           4.1427    4.1879   -0.0019 H       2  LIG2        0.0306
     18 H           3.8386    2.7059    0.8724 H       2  LIG2        0.0268
     19 H           3.8381    2.7052   -0.8749 H       2  LIG2        0.0268
     20 C           4.1518   -0.0588    0.0002 C.3     1  LIG1        0.1680
     21 C           5.5600   -0.0451    0.0016 C.3     3  LIG3       -0.0681
     22 C           3.4843    1.1831   -0.0005 C.2     1  LIG1        0.0089
     23 C           6.2742    1.1510    0.0017 C.2     4  LIG4        0.0122
     24 H           6.0950   -0.9922    0.0024 H       3  LIG3        0.0227
     25 C           4.1968    2.3775   -0.0004 C.3     2  LIG2       -0.0494
     26 C           5.5955    2.3702    0.0006 C.3     4  LIG4        0.2085
     27 H           3.6591    3.3222   -0.0009 H       5  UNK5        0.0000
     28 O           3.5411   -1.2065   -0.0001 O.3     1  LIG1       -0.3535
     29 C           2.1269   -0.9946   -0.0003 C.3     1  LIG1        0.1173
     30 H           1.6247   -1.9395   -0.0006 H       1  LIG1        0.0650
     31 H           1.8487   -0.4432    0.8736 H       1  LIG1        0.0227
     32 H           1.8490   -0.4427   -0.8737 H       1  LIG1        0.0227
     33 O           6.2562    3.4899    0.0008 O.3     4  LIG4       -0.2152
     34 C           7.6597    3.2159    0.0008 C.3     4  LIG4       -0.0348
     35 H           8.2031    4.1377    0.0008 H       4  LIG4        0.0306
     36 H           7.9131    2.6525    0.8745 H       4  LIG4        0.0268
     37 H           7.9131    2.6525   -0.8728 H       4  LIG4        0.0268
     38 C           8.2534   -0.1087    0.0043 C.2     4  LIG4        0.1298
     39 C           9.6614   -0.0814    0.0071 C.2     4  LIG4       -0.0128
     40 C           7.5739    1.1267    0.0029 C.2     4  LIG4        0.0343
     41 C          10.3639    1.1216    0.0079 C.2     4  LIG4        0.0016
     42 H          10.2056   -1.0232    0.0084 H       4  LIG4        0.0658
     43 C           8.2747    2.3279    0.0036 C.3     4  LIG4       -0.0494
     44 C           9.6734    2.3342    0.0060 C.3     4  LIG4        0.2078
     45 H           7.7279    3.2674    0.0026 H       6  UNK6        0.0000
     46 O           7.6539   -1.2622    0.0034 O.2     4  LIG4       -0.4805
     47 C           6.2377   -1.0641    0.0031 C.3     4  LIG4        0.1805
     48 H           5.7446   -2.0138    0.0022 H       4  LIG4        0.0811
     49 H           5.9540   -0.5158    0.8770 H       3  LIG3        0.0227
     50 H           5.9546   -0.5145   -0.8703 H       3  LIG3        0.0227
     51 O          10.3232    3.4602    0.0069 O.3     4  LIG4       -0.2152
     52 C          11.7293    3.1999    0.0071 C.3     5  UNK5       -0.0091
     53 H          12.2637    4.1269    0.0077 H       6  UNK6        0.0194
     54 H          11.9880    2.6386    0.8807 H       5  UNK5        0.0271
     55 H          11.9884    2.6393   -0.8666 H       5  UNK5        0.0271
     56 C          12.3772    2.3260    0.0125 C.3     5  UNK5       -0.0452
     57 C          13.7839    2.2597    0.0167 C.3     4  LIG4       -0.0057
     58 C          11.6638    1.1099    0.0104 C.2     4  LIG4       -0.0255
     59 C          14.4529    1.0378    0.0181 C.2     4  LIG4       -0.0416
     60 H          14.3540    3.1861    0.0186 H       4  LIG4        0.0356
     61 C          12.3311   -0.1102    0.0118 C.3     4  LIG4        0.0555
     62 C          13.7291   -0.1553    0.0156 C.2     4  LIG4        0.1021
     63 H          11.7585   -1.0342    0.0102 H       4  LIG4        0.0438
     64 H          15.7527    1.0135    0.0219 H       4  LIG4        0.0608
     65 O          11.8099    3.4957    0.0110 O.3     7  HOH7        0.0000
     66 C          12.8144    4.5134    0.0104 C.3     8  LIG8       -0.0776
     67 H          12.3471    5.4759    0.0091 H       6  UNK6        0.0194
     68 H          13.4235    4.4139    0.8846 H       6  UNK6        0.0194
     69 H          13.4245    4.4119   -0.8627 H       6  UNK6        0.0194
     70 O          14.3475   -1.2989    0.0171 O.2     4  LIG4       -0.4990
     71 C          13.3888   -2.3599    0.0176 C.3     4  LIG4        0.0783
     72 H          13.8981   -3.3009    0.0186 H       4  LIG4        0.0660
     73 H          12.7750   -2.2856    0.8909 H       4  LIG4        0.0660
     74 H          12.7758   -2.2871   -0.8564 H       4  LIG4        0.0660
@<TRIPOS>BOND
     1    19    25    1
     2    32     2    1
     3    14    11    1
     4    37    43    1
     5    50    21    1
     6    55    56    1
     7    69    66    1
     8    74    71    1
     9    17    16    1
    10    16    25    1
    11    15     7    1
    12     7     6    2
    13     7     4    1
    14    30    29    1
    15    22     4    2
    16    22    20    1
    17    25    18    1
    18     6     8    1
    19     6     3    1
    20    29    28    1
    21    28    20    1
    22     1     3    2
    23     1    10    1
    24     2     5    1
    25     2    31    1
    26     3     9    1
    27    10    11    1
    28    11    12    1
    29    11    13    1
    30    26    33    1
    31    26    23    1
    32    34    35    1
    33    34    43    1
    34    21    24    1
    35    21    49    1
    36    23    40    2
    37    48    47    1
    38    40    38    1
    39    47    46    1
    40    46    38    1
    41    43    36    1
    42    38    39    2
    43    44    51    1
    44    44    41    1
    45    39    41    1
    46    39    42    1
    47    52    56    1
    48    53    66    1
    49    41    58    2
    50    67    66    1
    51    63    61    1
    52    58    61    1
    53    66    68    1
    54    61    62    1
    55    56    54    1
    56    62    70    1
    57    62    59    2
    58    57    59    1
    59    57    60    1
    60    70    71    1
    61    71    72    1
    62    71    73    1
    63    59    64    1
