@<TRIPOS>MOLECULE
mol_data/noopt/geoms/mol2/4ll4ll-4ll4ll-.out
 74 65 0 0 0
SMALL
GASTEIGER

@<TRIPOS>ATOM
      1 C           0.0509    0.0309    0.0002 C.ar    1  LIG1        0.1209
      2 C           1.4592    0.0309    0.0002 C.ar    1  LIG1       -0.0086
      3 C          -0.6045    1.2792    0.0002 C.ar    1  LIG1       -0.0163
      4 C           2.1849    1.2200   -0.0004 C.ar    1  LIG1        0.0328
      5 H           1.9850   -0.9213    0.0004 H       1  LIG1        0.0661
      6 C           0.1195    2.4666   -0.0004 C.ar    1  LIG1       -0.0109
      7 C           1.5181    2.4458   -0.0008 C.ar    1  LIG1        0.1869
      8 H          -0.4090    3.4165   -0.0003 H       1  LIG1        0.0657
      9 H          -1.9035    1.3287    0.0016 H       1  LIG1        0.0655
     10 O          -0.5709   -1.1108    0.0005 O.3     1  LIG1       -0.4951
     11 C          -1.9830   -0.8853    0.0005 C.3     1  LIG1        0.0788
     12 H          -2.4943   -1.8252    0.0006 H       1  LIG1        0.0660
     13 H          -2.2556   -0.3309    0.8742 H       1  LIG1        0.0660
     14 H          -2.2557   -0.3310   -0.8731 H       1  LIG1        0.0660
     15 O           2.1896    3.5590   -0.0012 O.3     1  LIG1       -0.2873
     16 C           3.5904    3.2714   -0.0014 C.3     1  LIG1       -0.0091
     17 H           4.1427    4.1879   -0.0019 H       3  LIG3        0.0194
     18 H           3.8386    2.7059    0.8724 H       1  LIG1        0.0271
     19 H           3.8381    2.7052   -0.8749 H       1  LIG1        0.0271
     20 C           4.2212    2.3851    0.0002 C.3     1  LIG1       -0.0452
     21 C           5.6264    2.2916    0.0016 C.2     2  LIG2       -0.0527
     22 C           3.4843    1.1831   -0.0005 C.2     1  LIG1       -0.0063
     23 C           6.2715    1.0569    0.0017 C.2     2  LIG2       -0.0063
     24 H           6.2143    3.2067    0.0024 H       2  LIG2        0.0624
     25 C           4.1278   -0.0498   -0.0004 C.2     1  LIG1       -0.0527
     26 C           5.5247   -0.1219    0.0006 C.3     2  LIG2       -0.0091
     27 H           3.5374   -0.9625   -0.0009 H       1  LIG1        0.0624
     28 O           3.6766    3.5656   -0.0001 O.3     3  LIG3        0.0000
     29 C           4.7008    4.5636   -0.0003 C.3     4  LIG4       -0.0776
     30 H           4.2522    5.5351   -0.0007 H       3  LIG3        0.0194
     31 H           5.3081    4.4516    0.8736 H       3  LIG3        0.0194
     32 H           5.3084    4.4510   -0.8737 H       3  LIG3        0.0194
     33 O           6.1208   -1.2773    0.0008 O.3     5  HOH5       -0.2528
     34 C           5.1417   -2.3195    0.0008 C.3     6  LIG6       -0.0681
     35 H           5.6327   -3.2702    0.0009 H       4  LIG4        0.0227
     36 H           4.5298   -2.2340    0.8745 H       4  LIG4        0.0227
     37 H           4.5298   -2.2341   -0.8728 H       4  LIG4        0.0227
     38 C           8.2259   -0.2409    0.0043 C.ar    2  LIG2        0.1875
     39 C           9.6342   -0.2409    0.0071 C.ar    2  LIG2       -0.0029
     40 C           7.5705    1.0074    0.0029 C.ar    2  LIG2        0.0330
     41 C          10.3599    0.9482    0.0079 C.ar    2  LIG2        0.0331
     42 H          10.1600   -1.1931    0.0084 H       2  LIG2        0.0663
     43 C           8.2945    2.1948    0.0036 C.ar    2  LIG2       -0.0029
     44 C           9.6931    2.1740    0.0060 C.ar    2  LIG2        0.1875
     45 H           7.7660    3.1447    0.0026 H       2  LIG2        0.0663
     46 O           7.6041   -1.3826    0.0034 O.3     2  LIG2       -0.2872
     47 C           6.1920   -1.1571    0.0031 C.3     2  LIG2       -0.0452
     48 H           5.6807   -2.0970    0.0022 H       0  HOH0        0.2528
     49 H           5.9190   -0.6034    0.8770 H       2  LIG2        0.0271
     50 H           5.9197   -0.6021   -0.8703 H       2  LIG2        0.0271
     51 O          10.3646    3.2872    0.0069 O.3     2  LIG2       -0.2872
     52 C          11.7654    2.9996    0.0071 C.3     5  HOH5       -0.0091
     53 H          12.3177    3.9160    0.0077 H       6  LIG6        0.0194
     54 H          12.0131    2.4334    0.8807 H       5  HOH5        0.0271
     55 H          12.0136    2.4341   -0.8666 H       5  HOH5        0.0271
     56 C          12.3962    2.1133    0.0125 C.3     5  HOH5       -0.0452
     57 C          13.8014    2.0197    0.0167 C.3     2  LIG2       -0.0053
     58 C          11.6593    0.9113    0.0104 C.2     2  LIG2       -0.0027
     59 C          14.4465    0.7851    0.0181 C.2     2  LIG2       -0.0380
     60 H          14.3892    2.9349    0.0186 H       2  LIG2        0.0356
     61 C          12.3028   -0.3216    0.0118 C.2     2  LIG2       -0.0118
     62 C          13.6997   -0.3937    0.0156 C.2     2  LIG2        0.1171
     63 H          11.7124   -1.2343    0.0102 H       2  LIG2        0.0660
     64 H          15.7455    0.7356    0.0219 H       2  LIG2        0.0611
     65 O          11.8516    3.2938    0.0110 O.3     7  HOH7        0.0000
     66 C          12.8758    4.2918    0.0104 C.3     8  LIG8       -0.0776
     67 H          12.4272    5.2632    0.0091 H       6  LIG6        0.0194
     68 H          13.4828    4.1805    0.8846 H       6  LIG6        0.0194
     69 H          13.4837    4.1785   -0.8627 H       6  LIG6        0.0194
     70 O          14.2958   -1.5491    0.0171 O.2     2  LIG2       -0.4954
     71 C          13.3166   -2.5913    0.0176 C.3     2  LIG2        0.0788
     72 H          13.8076   -3.5420    0.0186 H       2  LIG2        0.0660
     73 H          12.7044   -2.5051    0.8909 H       2  LIG2        0.0660
     74 H          12.7052   -2.5067   -0.8564 H       2  LIG2        0.0660
@<TRIPOS>BOND
     1    19    20    1
     2    32    29    1
     3    14    11    1
     4    37    34    1
     5    50    47    1
     6    55    56    1
     7    69    66    1
     8    74    71    1
     9    17    29    1
    10    16    20    1
    11    15     7    1
    12    27    25    1
    13     7     6   ar
    14     7     4   ar
    15    30    29    1
    16    22    25    2
    17    22     4    1
    18     6     8    1
    19     6     3   ar
    20     4     2   ar
    21    29    31    1
    22    20    18    1
    23     1     2   ar
    24     1     3   ar
    25     1    10    1
    26     2     5    1
    27     3     9    1
    28    10    11    1
    29    11    12    1
    30    11    13    1
    31    26    47    1
    32    33    48    1
    33    34    35    1
    34    34    36    1
    35    21    23    2
    36    21    24    1
    37    23    40    1
    38    45    43    1
    39    40    43   ar
    40    40    38   ar
    41    47    49    1
    42    46    38    1
    43    43    44   ar
    44    38    39   ar
    45    44    51    1
    46    44    41   ar
    47    39    41   ar
    48    39    42    1
    49    52    56    1
    50    53    66    1
    51    41    58    1
    52    67    66    1
    53    63    61    1
    54    58    61    2
    55    66    68    1
    56    61    62    1
    57    56    54    1
    58    62    70    1
    59    62    59    2
    60    57    59    1
    61    57    60    1
    62    70    71    1
    63    71    72    1
    64    71    73    1
    65    59    64    1
