@<TRIPOS>MOLECULE
mol_data/noopt/geoms/mol2/4ll4ad(60)6ai(160)13hf(50).out
 54 57 0 0 0
SMALL
GASTEIGER

@<TRIPOS>ATOM
      1 C           0.0509    0.0309    0.0002 C.ar    1  LIG1        0.1209
      2 C           1.4592    0.0309    0.0002 C.ar    1  LIG1       -0.0091
      3 C          -0.6045    1.2792    0.0002 C.ar    1  LIG1       -0.0165
      4 C           2.1849    1.2200   -0.0004 C.ar    1  LIG1        0.0233
      5 H           1.9850   -0.9213    0.0004 H       1  LIG1        0.0661
      6 C           0.1195    2.4666   -0.0004 C.ar    1  LIG1       -0.0159
      7 C           1.5181    2.4458   -0.0008 C.ar    1  LIG1        0.1283
      8 H          -0.4090    3.4165   -0.0003 H       1  LIG1        0.0655
      9 H          -1.9035    1.3287    0.0016 H       1  LIG1        0.0655
     10 O          -0.5709   -1.1108    0.0005 O.3     1  LIG1       -0.4951
     11 C          -1.9830   -0.8853    0.0005 C.3     1  LIG1        0.0788
     12 H          -2.4943   -1.8252    0.0006 H       1  LIG1        0.0660
     13 H          -2.2556   -0.3309    0.8742 H       1  LIG1        0.0660
     14 H          -2.2557   -0.3310   -0.8731 H       1  LIG1        0.0660
     15 O           2.1896    3.5590   -0.0012 O.3     1  LIG1       -0.4880
     16 C           3.5904    3.2714   -0.0014 C.3     1  LIG1        0.1235
     17 H           4.1427    4.1879   -0.0019 H       1  LIG1        0.0731
     18 H           3.8386    2.7059    0.8724 H       1  LIG1        0.0731
     19 H           3.8381    2.7052   -0.8749 H       1  LIG1        0.0332
     20 C           4.1692    0.5528    1.0585 C.2     1  LIG1       -0.0575
     21 C           5.5767    0.5410    1.0127 C.2     1  LIG1       -0.0561
     22 C           3.4843    1.1831   -0.0005 C.2     1  LIG1       -0.0347
     23 C           6.2736    1.1295   -0.0403 C.2     1  LIG1       -0.0168
     24 H           6.1251    0.0601    1.8197 H       1  LIG1        0.0621
     25 C           4.1795    1.7708   -1.0519 C.3     1  LIG1       -0.0026
     26 C           5.5778    1.7483   -1.0796 C.3     1  LIG1        0.1093
     27 H           3.6285    2.2508   -1.8567 H       1  LIG1        0.0332
     28 H           3.5752   -0.0131    2.0668 H       1  LIG1        0.0621
     29 N           6.7906    2.7856   -2.9340 N.1     1  LIG1       -0.1956
     30 C           6.2222    2.2995   -2.0649 C.1     1  LIG1        0.0762
     31 C           8.2549   -0.0565   -0.4713 C.ar    1  LIG1        0.0358
     32 C           7.5732    1.1001   -0.0506 C.ar    1  LIG1       -0.0019
     33 C           8.3231    2.2067    0.3519 C.ar    1  LIG1       -0.0478
     34 C           9.7160    2.1217    0.3212 C.ar    1  LIG1       -0.0224
     35 C          10.3061    0.9213   -0.1152 C.ar    1  LIG1        0.0919
     36 N           9.5979   -0.1558   -0.5072 N.ar    1  LIG1       -0.2526
     37 H           7.8255    3.1275    0.6879 H       1  LIG1        0.0627
     38 H           7.6006   -1.1121   -0.8554 H       1  LIG1        0.0836
     39 C          10.4589    3.1245    0.6863 C.3     1  LIG1       -0.0376
     40 H           9.8764    3.8058    1.2705 H       1  LIG1        0.0278
     41 H          10.8312    3.6272   -0.1819 H       1  LIG1        0.0278
     42 H          11.2805    2.7657    1.2704 H       1  LIG1        0.0278
     43 C          11.5990    0.7936   -0.1615 C.ar    1  LIG1        0.0898
     44 C          12.4346    0.0102    0.5706 C.ar    1  LIG1        0.0938
     45 C          13.7675    0.2596    0.1102 C.ar    1  LIG1        0.1554
     46 C          13.6875    1.1831   -0.8842 C.ar    1  LIG1        0.0461
     47 N          12.3617    1.5131   -1.0535 N.ar    1  LIG1       -0.3549
     48 H          12.0109    2.1666   -1.7151 H       1  LIG1        0.1655
     49 H          14.6208    1.7262   -1.6081 H       1  LIG1        0.0845
     50 N          12.0847   -0.8116    1.5152 N.pl3   1  LIG1       -0.3535
     51 H          11.1095   -1.0175    1.4334 H       1  LIG1        0.1425
     52 H          12.6119   -1.6573    1.4334 H       1  LIG1        0.1425
     53 O          14.8556   -0.2934    0.5577 O.3     1  LIG1       -0.5035
     54 H          15.5338    0.3771    0.6680 H       1  LIG1        0.2923
@<TRIPOS>BOND
     1    29    30    3
     2    30    26    1
     3    27    25    1
     4    48    47    1
     5    49    46    1
     6    26    25    1
     7    26    23    1
     8    47    46   ar
     9    47    43   ar
    10    25    19    1
    11    25    22    1
    12    46    45   ar
    13    14    11    1
    14    38    31    1
    15    36    31   ar
    16    36    35   ar
    17    31    32   ar
    18    41    39    1
    19    43    35    1
    20    43    44   ar
    21    35    34   ar
    22    32    23    1
    23    32    33   ar
    24    23    21    2
    25    17    16    1
    26    16    15    1
    27    16    18    1
    28    15     7    1
    29     7     6   ar
    30     7     4   ar
    31    22     4    1
    32    22    20    2
    33     6     8    1
    34     6     3   ar
    35     4     2   ar
    36     1     3   ar
    37     1     2   ar
    38     1    10    1
    39     3     9    1
    40     2     5    1
    41    10    11    1
    42    11    12    1
    43    11    13    1
    44    45    53    1
    45    45    44   ar
    46    34    33   ar
    47    34    39    1
    48    33    37    1
    49    53    54    1
    50    44    50    1
    51    39    42    1
    52    39    40    1
    53    21    20    1
    54    21    24    1
    55    20    28    1
    56    52    50    1
    57    51    50    1
