@<TRIPOS>MOLECULE
mol_data/noopt/geoms/mol2/4ll4ll.out
 38 34 0 0 0
SMALL
GASTEIGER

@<TRIPOS>ATOM
      1 C           0.0509    0.0309    0.0002 C.2     1  LIG1        0.1616
      2 C           1.4592    0.0309    0.0002 C.3     2  LIG2       -0.0681
      3 C          -0.6045    1.2792    0.0002 C.2     1  LIG1       -0.0127
      4 C           2.1849    1.2200   -0.0004 C.2     1  LIG1        0.0445
      5 H           1.9850   -0.9213    0.0004 H       1  LIG1        0.0227
      6 C           0.1195    2.4666   -0.0004 C.2     1  LIG1       -0.0107
      7 C           1.5181    2.4458   -0.0008 C.2     1  LIG1        0.1876
      8 H          -0.4090    3.4165   -0.0003 H       1  LIG1        0.0657
      9 H          -1.9035    1.3287    0.0016 H       1  LIG1        0.0656
     10 O          -0.5709   -1.1108    0.0005 O.2     1  LIG1       -0.4915
     11 C          -1.9830   -0.8853    0.0005 C.3     1  LIG1        0.0790
     12 H          -2.4943   -1.8252    0.0006 H       1  LIG1        0.0660
     13 H          -2.2556   -0.3309    0.8742 H       1  LIG1        0.0660
     14 H          -2.2557   -0.3310   -0.8731 H       1  LIG1        0.0660
     15 O           2.1896    3.5590   -0.0012 O.2     1  LIG1       -0.2872
     16 C           3.5904    3.2714   -0.0014 C.3     2  LIG2       -0.0348
     17 H           4.1427    4.1879   -0.0019 H       2  LIG2        0.0306
     18 H           3.8386    2.7059    0.8724 H       2  LIG2        0.0268
     19 H           3.8381    2.7052   -0.8749 H       2  LIG2        0.0268
     20 C           4.1518   -0.0588    0.0002 C.2     1  LIG1        0.1299
     21 C           5.5600   -0.0451    0.0016 C.2     1  LIG1       -0.0157
     22 C           3.4843    1.1831   -0.0005 C.2     1  LIG1        0.0395
     23 C           6.2742    1.1510    0.0017 C.2     1  LIG1       -0.0128
     24 H           6.0950   -0.9922    0.0024 H       1  LIG1        0.0655
     25 C           4.1968    2.3775   -0.0004 C.3     2  LIG2       -0.0494
     26 C           5.5955    2.3702    0.0006 C.2     1  LIG1        0.1616
     27 H           3.6591    3.3222   -0.0009 H       3  UNK3        0.0000
     28 H           7.5740    1.1267    0.0029 H       1  LIG1        0.0656
     29 O           3.5411   -1.2065   -0.0001 O.2     1  LIG1       -0.4805
     30 C           2.1269   -0.9946   -0.0003 C.3     1  LIG1        0.1805
     31 H           1.6247   -1.9395   -0.0006 H       1  LIG1        0.0811
     32 H           1.8487   -0.4432    0.8736 H       1  LIG1        0.0227
     33 H           1.8490   -0.4427   -0.8737 H       1  LIG1        0.0227
     34 O           6.2562    3.4899    0.0008 O.2     1  LIG1       -0.4915
     35 C           7.6597    3.2159    0.0008 C.3     1  LIG1        0.0790
     36 H           8.2031    4.1377    0.0008 H       1  LIG1        0.0660
     37 H           7.9131    2.6525    0.8745 H       1  LIG1        0.0660
     38 H           7.9131    2.6525   -0.8728 H       1  LIG1        0.0660
@<TRIPOS>BOND
     1    19    25    1
     2    33     2    1
     3    14    11    1
     4    38    35    1
     5    17    16    1
     6    16    25    1
     7    15     7    1
     8     7     4    1
     9     7     6    2
    10    31    30    1
    11    22     4    2
    12    22    20    1
    13    25    18    1
    14     6     8    1
    15     6     3    1
    16    30    29    1
    17    29    20    1
    18     1     3    2
    19     1    10    1
    20     2     5    1
    21     2    32    1
    22     3     9    1
    23    20    21    2
    24    10    11    1
    25    11    12    1
    26    11    13    1
    27    26    34    1
    28    26    23    2
    29    34    35    1
    30    35    36    1
    31    35    37    1
    32    21    23    1
    33    21    24    1
    34    23    28    1
