@<TRIPOS>MOLECULE
mol_data/noopt/geoms/mol2/4ll4ll4ll.out
 56 48 0 0 0
SMALL
GASTEIGER

@<TRIPOS>ATOM
      1 C           0.0509    0.0309    0.0002 C.2     1  LIG1        0.1616
      2 C           1.4592    0.0309    0.0002 C.3     2  LIG2       -0.0681
      3 C          -0.6045    1.2792    0.0002 C.2     1  LIG1       -0.0127
      4 C           2.1849    1.2200   -0.0004 C.2     1  LIG1        0.0393
      5 H           1.9850   -0.9213    0.0004 H       1  LIG1        0.0227
      6 C           0.1195    2.4666   -0.0004 C.2     1  LIG1       -0.0107
      7 C           1.5181    2.4458   -0.0008 C.2     1  LIG1        0.1872
      8 H          -0.4090    3.4165   -0.0003 H       1  LIG1        0.0657
      9 H          -1.9035    1.3287    0.0016 H       1  LIG1        0.0656
     10 O          -0.5709   -1.1108    0.0005 O.2     1  LIG1       -0.4915
     11 C          -1.9830   -0.8853    0.0005 C.3     1  LIG1        0.0790
     12 H          -2.4943   -1.8252    0.0006 H       1  LIG1        0.0660
     13 H          -2.2556   -0.3309    0.8742 H       1  LIG1        0.0660
     14 H          -2.2557   -0.3310   -0.8731 H       1  LIG1        0.0660
     15 O           2.1896    3.5590   -0.0012 O.2     1  LIG1       -0.2872
     16 C           3.5904    3.2714   -0.0014 C.3     2  LIG2       -0.0348
     17 H           4.1427    4.1879   -0.0019 H       2  LIG2        0.0306
     18 H           3.8386    2.7059    0.8724 H       2  LIG2        0.0268
     19 H           3.8381    2.7052   -0.8749 H       2  LIG2        0.0268
     20 C           4.1518   -0.0588    0.0002 C.3     1  LIG1        0.1680
     21 C           5.5600   -0.0451    0.0016 C.3     3  LIG3       -0.0681
     22 C           3.4843    1.1831   -0.0005 C.2     1  LIG1        0.0089
     23 C           6.2742    1.1510    0.0017 C.2     4  LIG4        0.0121
     24 H           6.0950   -0.9922    0.0024 H       3  LIG3        0.0227
     25 C           4.1968    2.3775   -0.0004 C.3     2  LIG2       -0.0494
     26 C           5.5955    2.3702    0.0006 C.3     4  LIG4        0.2085
     27 H           3.6591    3.3222   -0.0009 H       5  UNK5        0.0000
     28 O           3.5411   -1.2065   -0.0001 O.3     1  LIG1       -0.3535
     29 C           2.1269   -0.9946   -0.0003 C.3     1  LIG1        0.1173
     30 H           1.6247   -1.9395   -0.0006 H       1  LIG1        0.0650
     31 H           1.8487   -0.4432    0.8736 H       1  LIG1        0.0227
     32 H           1.8490   -0.4427   -0.8737 H       1  LIG1        0.0227
     33 O           6.2562    3.4899    0.0008 O.3     4  LIG4       -0.2152
     34 C           7.6597    3.2159    0.0008 C.3     4  LIG4       -0.0348
     35 H           8.2031    4.1377    0.0008 H       4  LIG4        0.0306
     36 H           7.9131    2.6525    0.8745 H       4  LIG4        0.0268
     37 H           7.9131    2.6525   -0.8728 H       4  LIG4        0.0268
     38 C           8.2534   -0.1087    0.0043 C.2     4  LIG4        0.1295
     39 C           9.6614   -0.0814    0.0071 C.2     4  LIG4       -0.0157
     40 C           7.5739    1.1267    0.0029 C.2     4  LIG4        0.0343
     41 C          10.3639    1.1216    0.0079 C.2     4  LIG4       -0.0128
     42 H          10.2056   -1.0232    0.0084 H       4  LIG4        0.0655
     43 C           8.2747    2.3279    0.0036 C.3     4  LIG4       -0.0494
     44 C           9.6734    2.3342    0.0060 C.2     4  LIG4        0.1616
     45 H           7.7279    3.2674    0.0026 H       6  UNK6        0.0000
     46 H          11.6639    1.1099    0.0104 H       4  LIG4        0.0656
     47 O           7.6539   -1.2622    0.0034 O.2     4  LIG4       -0.4805
     48 C           6.2377   -1.0641    0.0031 C.3     4  LIG4        0.1805
     49 H           5.7446   -2.0138    0.0022 H       4  LIG4        0.0811
     50 H           5.9540   -0.5158    0.8770 H       3  LIG3        0.0227
     51 H           5.9546   -0.5145   -0.8703 H       3  LIG3        0.0227
     52 O          10.3232    3.4602    0.0069 O.2     4  LIG4       -0.4915
     53 C          11.7293    3.1999    0.0071 C.3     4  LIG4        0.0790
     54 H          12.2637    4.1269    0.0077 H       4  LIG4        0.0660
     55 H          11.9880    2.6386    0.8807 H       4  LIG4        0.0660
     56 H          11.9884    2.6393   -0.8666 H       4  LIG4        0.0660
@<TRIPOS>BOND
     1    19    25    1
     2    32     2    1
     3    14    11    1
     4    37    43    1
     5    51    21    1
     6    56    53    1
     7    17    16    1
     8    16    25    1
     9    15     7    1
    10     7     6    2
    11     7     4    1
    12    30    29    1
    13    22     4    2
    14    22    20    1
    15    25    18    1
    16     6     8    1
    17     6     3    1
    18    29    28    1
    19    28    20    1
    20     3     1    2
    21     3     9    1
    22     2     5    1
    23     2    31    1
    24     1    10    1
    25    10    11    1
    26    11    12    1
    27    11    13    1
    28    26    33    1
    29    26    23    1
    30    34    35    1
    31    34    43    1
    32    21    24    1
    33    21    50    1
    34    23    40    2
    35    49    48    1
    36    40    38    1
    37    48    47    1
    38    47    38    1
    39    43    36    1
    40    38    39    2
    41    44    52    1
    42    44    41    2
    43    52    53    1
    44    39    41    1
    45    39    42    1
    46    53    54    1
    47    53    55    1
    48    41    46    1
