@<TRIPOS>MOLECULE
mol_data/noopt/geoms/mol2/4ll4ll4ll-4ll-.out
 74 68 0 0 0
SMALL
GASTEIGER

@<TRIPOS>ATOM
      1 C           0.0509    0.0309    0.0002 C.2     1  LIG1        0.1616
      2 C           1.4592    0.0309    0.0002 C.3     2  LIG2       -0.0681
      3 C          -0.6045    1.2792    0.0002 C.2     1  LIG1       -0.0127
      4 C           2.1849    1.2200   -0.0004 C.2     1  LIG1        0.0445
      5 H           1.9850   -0.9213    0.0004 H       1  LIG1        0.0227
      6 C           0.1195    2.4666   -0.0004 C.2     1  LIG1       -0.0107
      7 C           1.5181    2.4458   -0.0008 C.2     1  LIG1        0.1876
      8 H          -0.4090    3.4165   -0.0003 H       1  LIG1        0.0657
      9 H          -1.9035    1.3287    0.0016 H       1  LIG1        0.0656
     10 O          -0.5709   -1.1108    0.0005 O.2     1  LIG1       -0.4915
     11 C          -1.9830   -0.8853    0.0005 C.3     1  LIG1        0.0790
     12 H          -2.4943   -1.8252    0.0006 H       1  LIG1        0.0660
     13 H          -2.2556   -0.3309    0.8742 H       1  LIG1        0.0660
     14 H          -2.2557   -0.3310   -0.8731 H       1  LIG1        0.0660
     15 O           2.1896    3.5590   -0.0012 O.2     1  LIG1       -0.2872
     16 C           3.5904    3.2714   -0.0014 C.3     2  LIG2       -0.0348
     17 H           4.1427    4.1879   -0.0019 H       2  LIG2        0.0306
     18 H           3.8386    2.7059    0.8724 H       2  LIG2        0.0268
     19 H           3.8381    2.7052   -0.8749 H       2  LIG2        0.0268
     20 C           4.1518   -0.0588    0.0002 C.2     1  LIG1        0.1302
     21 C           5.5600   -0.0451    0.0016 C.2     1  LIG1       -0.0125
     22 C           3.4843    1.1831   -0.0005 C.2     1  LIG1        0.0395
     23 C           6.2742    1.1510    0.0017 C.2     1  LIG1        0.0052
     24 H           6.0950   -0.9922    0.0024 H       1  LIG1        0.0658
     25 C           4.1968    2.3775   -0.0004 C.3     2  LIG2       -0.0494
     26 C           5.5955    2.3702    0.0006 C.3     1  LIG1        0.2081
     27 H           3.6591    3.3222   -0.0009 H       3  UNK3        0.0000
     28 O           3.5411   -1.2065   -0.0001 O.2     1  LIG1       -0.4805
     29 C           2.1269   -0.9946   -0.0003 C.3     1  LIG1        0.1805
     30 H           1.6247   -1.9395   -0.0006 H       1  LIG1        0.0811
     31 H           1.8487   -0.4432    0.8736 H       1  LIG1        0.0227
     32 H           1.8490   -0.4427   -0.8737 H       1  LIG1        0.0227
     33 O           6.2562    3.4899    0.0008 O.3     1  LIG1       -0.2152
     34 C           7.6597    3.2159    0.0008 C.3     3  UNK3       -0.0091
     35 H           8.2031    4.1377    0.0008 H       4  LIG4        0.0194
     36 H           7.9131    2.6525    0.8745 H       3  UNK3        0.0271
     37 H           7.9131    2.6525   -0.8728 H       3  UNK3        0.0271
     38 C           8.2991    2.3358    0.0043 C.3     3  UNK3       -0.0452
     39 C           9.7051    2.2559    0.0071 C.2     1  LIG1       -0.0497
     40 C           7.5739    1.1267    0.0029 C.2     1  LIG1       -0.0076
     41 C          10.3621    1.0275    0.0079 C.2     1  LIG1        0.0274
     42 H          10.2841    3.1767    0.0084 H       1  LIG1        0.0625
     43 C           8.2293   -0.0999    0.0037 C.2     1  LIG1       -0.0113
     44 C           9.6269   -0.1585    0.0061 C.2     1  LIG1        0.1285
     45 H           7.6478   -1.0183    0.0026 H       1  LIG1        0.0660
     46 O           7.7431    3.5109    0.0034 O.3     4  LIG4        0.0000
     47 C           8.7575    4.5188    0.0030 C.3     5  LIG5       -0.0776
     48 H           8.2995    5.4859    0.0022 H       4  LIG4        0.0194
     49 H           9.3657    4.4131    0.8770 H       4  LIG4        0.0194
     50 H           9.3663    4.4118   -0.8703 H       4  LIG4        0.0194
     51 O          10.2341   -1.3080    0.0069 O.2     1  LIG1       -0.4945
     52 C           9.2651   -2.3597    0.0072 C.3     1  LIG1        0.0788
     53 H           9.7653   -3.3056    0.0077 H       1  LIG1        0.0660
     54 H           8.6523   -2.2798    0.8807 H       1  LIG1        0.0660
     55 H           8.6527   -2.2806   -0.8666 H       1  LIG1        0.0660
     56 C          12.3984    2.1926    0.0125 C.ar    1  LIG1        0.1281
     57 C          13.8036    2.0991    0.0167 C.ar    1  LIG1       -0.0159
     58 C          11.6616    0.9906    0.0104 C.ar    1  LIG1        0.0307
     59 C          14.4487    0.8644    0.0181 C.ar    1  LIG1       -0.0165
     60 H          14.3915    3.0142    0.0186 H       1  LIG1        0.0655
     61 C          12.3051   -0.2423    0.0118 C.ar    1  LIG1       -0.0086
     62 C          13.7020   -0.3144    0.0156 C.ar    1  LIG1        0.1209
     63 H          11.7147   -1.1550    0.0102 H       1  LIG1        0.0661
     64 H          15.7478    0.8149    0.0219 H       1  LIG1        0.0655
     65 O          11.8539    3.3731    0.0110 O.3     1  LIG1       -0.4945
     66 C          12.8780    4.3711    0.0104 C.3     1  LIG1        0.0788
     67 H          12.4294    5.3425    0.0091 H       1  LIG1        0.0660
     68 H          13.4850    4.2598    0.8846 H       1  LIG1        0.0660
     69 H          13.4860    4.2578   -0.8627 H       1  LIG1        0.0660
     70 O          14.2980   -1.4698    0.0171 O.3     1  LIG1       -0.4951
     71 C          13.3189   -2.5120    0.0176 C.3     1  LIG1        0.0788
     72 H          13.8099   -3.4627    0.0186 H       1  LIG1        0.0660
     73 H          12.7066   -2.4258    0.8909 H       1  LIG1        0.0660
     74 H          12.7074   -2.4274   -0.8564 H       1  LIG1        0.0660
@<TRIPOS>BOND
     1    19    25    1
     2    32     2    1
     3    14    11    1
     4    37    38    1
     5    50    47    1
     6    55    52    1
     7    69    66    1
     8    74    71    1
     9    17    16    1
    10    16    25    1
    11    15     7    1
    12     7     6    2
    13     7     4    1
    14    30    29    1
    15    22     4    2
    16    22    20    1
    17    25    18    1
    18     6     8    1
    19     6     3    1
    20    29    28    1
    21    28    20    1
    22     1     3    2
    23     1    10    1
    24     2     5    1
    25     2    31    1
    26     3     9    1
    27    20    21    2
    28    10    11    1
    29    11    12    1
    30    11    13    1
    31    26    33    1
    32    26    23    1
    33    34    38    1
    34    35    47    1
    35    21    23    1
    36    21    24    1
    37    23    40    2
    38    48    47    1
    39    45    43    1
    40    40    43    1
    41    47    49    1
    42    43    44    2
    43    38    36    1
    44    44    51    1
    45    44    41    1
    46    51    52    1
    47    39    41    2
    48    39    42    1
    49    52    53    1
    50    52    54    1
    51    41    58    1
    52    67    66    1
    53    63    61    1
    54    58    61   ar
    55    58    56   ar
    56    66    65    1
    57    66    68    1
    58    65    56    1
    59    61    62   ar
    60    56    57   ar
    61    62    70    1
    62    62    59   ar
    63    57    59   ar
    64    57    60    1
    65    70    71    1
    66    71    72    1
    67    71    73    1
    68    59    64    1
