@<TRIPOS>MOLECULE
mol_data/noopt/geoms/mol2/4ll6ea(30)4lh(190)4ie(300).out
 62 61 0 0 0
SMALL
GASTEIGER

@<TRIPOS>ATOM
      1 C           0.0509    0.0309    0.0002 C.ar    1  LIG1        0.1209
      2 C           1.4592    0.0309    0.0002 C.ar    1  LIG1       -0.0086
      3 C          -0.6045    1.2792    0.0002 C.ar    1  LIG1       -0.0163
      4 C           2.1849    1.2200   -0.0004 C.ar    1  LIG1        0.0328
      5 H           1.9850   -0.9213    0.0004 H       1  LIG1        0.0661
      6 C           0.1195    2.4666   -0.0004 C.ar    1  LIG1       -0.0109
      7 C           1.5181    2.4458   -0.0008 C.ar    1  LIG1        0.1869
      8 H          -0.4090    3.4165   -0.0003 H       1  LIG1        0.0657
      9 H          -1.9035    1.3287    0.0016 H       1  LIG1        0.0655
     10 O          -0.5709   -1.1108    0.0005 O.3     1  LIG1       -0.4951
     11 C          -1.9830   -0.8853    0.0005 C.3     1  LIG1        0.0788
     12 H          -2.4943   -1.8252    0.0006 H       1  LIG1        0.0660
     13 H          -2.2556   -0.3309    0.8742 H       1  LIG1        0.0660
     14 H          -2.2557   -0.3310   -0.8731 H       1  LIG1        0.0660
     15 O           2.1896    3.5590   -0.0012 O.3     1  LIG1       -0.2873
     16 C           3.5904    3.2714   -0.0014 C.3     2  LIG2       -0.0531
     17 H           4.1427    4.1879   -0.0019 H       1  LIG1        0.0265
     18 H           3.8386    2.7059    0.8724 H       1  LIG1        0.0265
     19 H           3.8381    2.7052   -0.8749 H       2  LIG2        0.0309
     20 C           4.2250    2.2141   -0.6070 C.3     3  LIG3       -0.0309
     21 C           3.4844    1.1831   -0.0005 C.2     1  LIG1       -0.0062
     22 C           4.1761    0.1278    0.5968 C.2     1  LIG1       -0.0515
     23 C           5.5717    0.1375    0.5684 C.2     1  LIG1       -0.0359
     24 C           6.2230    1.2132   -0.0626 C.2     1  LIG1        0.0831
     25 N           5.5714    2.2395   -0.6436 N.pl3   1  LIG1       -0.1286
     26 H           3.6316   -0.6961    1.0795 H       1  LIG1        0.0624
     27 C           3.6261    3.2179   -1.1759 C.1     3  LIG3       -0.0185
     28 C           3.0728    4.1454   -1.7017 C.1     3  LIG3       -0.1053
     29 H           2.5798    4.9716   -2.1700 H       3  LIG3        0.1238
     30 H           6.2617   -0.8219    1.1102 H       1  LIG1        0.0638
     31 C           8.1635    2.4987   -0.3559 C.ar    1  LIG1        0.1298
     32 C           9.5709    2.5042   -0.4047 C.ar    1  LIG1       -0.0098
     33 C           7.5208    1.2672   -0.1149 C.ar    1  LIG1        0.0429
     34 C          10.3079    1.3363   -0.2212 C.ar    1  LIG1        0.0065
     35 H          10.0870    3.4436   -0.5897 H       1  LIG1        0.0661
     36 C           8.2561    0.1011    0.0684 C.ar    1  LIG1       -0.0279
     37 C           9.6536    0.1270    0.0167 C.ar    1  LIG1        0.0332
     38 H           7.7373   -0.8362    0.2527 H       1  LIG1        0.0644
     39 O           7.5308    3.6203   -0.5344 O.3     1  LIG1       -0.4944
     40 C           8.4727    4.6943   -0.6000 C.3     1  LIG1        0.0788
     41 H           7.9516    5.6173   -0.7471 H       1  LIG1        0.0660
     42 H           9.0266    4.7394    0.3144 H       1  LIG1        0.0660
     43 H           9.1446    4.5302   -1.4164 H       1  LIG1        0.0660
     44 N          10.3357   -0.9663    0.1886 N.pl3   1  LIG1       -0.3575
     45 H           9.8508   -1.7317   -0.2346 H       1  LIG1        0.1423
     46 H          11.2363   -0.8673   -0.2347 H       1  LIG1        0.1423
     47 C          12.2855    0.7871   -1.3577 C.ar    1  LIG1       -0.0426
     48 C          13.6920    0.8575   -1.3661 C.ar    1  LIG1       -0.0571
     49 C          11.6062    1.3777   -0.2725 C.ar    1  LIG1       -0.0120
     50 C          14.3932    1.4879   -0.3408 C.ar    1  LIG1       -0.0461
     51 H          14.2360    0.4081   -2.1940 H       1  LIG1        0.0621
     52 C          12.3058    2.0073    0.7514 C.ar    1  LIG1       -0.0383
     53 C          13.7030    2.0670    0.7248 C.ar    1  LIG1        0.0253
     54 H          11.7592    2.4551    1.5774 H       1  LIG1        0.0636
     55 H          15.6918    1.5345   -0.3806 H       1  LIG1        0.0630
     56 C          11.6870    0.1856   -2.3430 C.3     1  LIG1       -0.0391
     57 H          11.8725   -0.8665   -2.2841 H       1  LIG1        0.0278
     58 H          12.0620    0.5625   -3.2716 H       1  LIG1        0.0278
     59 H          10.6339    0.3660   -2.2841 H       1  LIG1        0.0278
     60 C          14.3516    2.6567    1.6848 C.1     1  LIG1       -0.0696
     61 C          14.9509    3.2016    2.5718 C.1     1  LIG1       -0.1139
     62 H          15.4847    3.6870    3.3620 H       1  LIG1        0.1232
@<TRIPOS>BOND
     1    58    56    1
     2    56    59    1
     3    56    57    1
     4    56    47    1
     5    51    48    1
     6    29    28    1
     7    28    27    3
     8    43    40    1
     9    48    47   ar
    10    48    50   ar
    11    47    49   ar
    12    19    20    1
    13    14    11    1
    14    41    40    1
    15    25    24    1
    16    40    39    1
    17    40    42    1
    18    35    32    1
    19    39    31    1
    20    32    31   ar
    21    32    34   ar
    22    55    50    1
    23    31    33   ar
    24    50    53   ar
    25    49    34    1
    26    49    52   ar
    27    46    44    1
    28    45    44    1
    29    34    37   ar
    30    33    24    1
    31    33    36   ar
    32    24    23    2
    33    17    16    1
    34    16    18    1
    35    15     7    1
    36     7     6   ar
    37     7     4   ar
    38    21     4    1
    39    21    22    2
    40     6     8    1
    41     6     3   ar
    42     4     2   ar
    43     1     2   ar
    44     1     3   ar
    45     1    10    1
    46     2     5    1
    47     3     9    1
    48    10    11    1
    49    11    12    1
    50    11    13    1
    51    37    36   ar
    52    37    44    1
    53    36    38    1
    54    23    22    1
    55    23    30    1
    56    22    26    1
    57    53    52   ar
    58    53    60    1
    59    52    54    1
    60    60    61    3
    61    61    62    1
