@<TRIPOS>MOLECULE
mol_data/noopt/geoms/mol2/512-48.out
 32 35 0 0 0
SMALL
GASTEIGER

@<TRIPOS>ATOM
      1 C          -2.0792   -1.7080   -0.0002 C.ar    1  LIG1       -0.0236
      2 C          -0.7020   -1.7080   -0.0002 C.ar    1  LIG1       -0.0540
      3 C          -0.1766   -0.3757   -0.0002 C.ar    1  LIG1       -0.0440
      4 C          -1.1831    0.5643    0.0006 C.ar    1  LIG1        0.0544
      5 S          -2.6937   -0.1528    0.0006 S.2     1  LIG1       -0.0936
      6 H          -2.8374   -2.7640   -0.0008 H       1  LIG1        0.0693
      7 H           0.0503   -2.7682   -0.0004 H       1  LIG1        0.0623
      8 H           1.0969   -0.1143   -0.0009 H       1  LIG1        0.0630
      9 C          -1.0166    1.8536    0.0014 C.ar    1  LIG1        0.1422
     10 C          -1.8501    2.9528    0.0020 C.ar    1  LIG1       -0.0147
     11 C          -0.9953    4.1216    0.0028 C.ar    1  LIG1       -0.0152
     12 C           0.3045    3.6589    0.0027 C.ar    1  LIG1        0.1357
     13 O           0.3174    2.2636    0.0019 O.2     1  LIG1       -0.4543
     14 H          -3.1501    2.9656    0.0019 H       1  LIG1        0.0656
     15 H          -1.4007    5.3568    0.0035 H       1  LIG1        0.0656
     16 C           2.6358    3.3958    0.0041 C.ar    1  LIG1       -0.0504
     17 C           3.8889    4.0384    0.0060 C.ar    1  LIG1       -0.0503
     18 C           1.4830    4.2076    0.0031 C.ar    1  LIG1        0.0173
     19 C           3.9921    5.4277    0.0064 C.ar    1  LIG1        0.0227
     20 H           4.7913    3.4311    0.0070 H       1  LIG1        0.0625
     21 C           1.5854    5.5945    0.0034 C.ar    1  LIG1       -0.0504
     22 C           2.8394    6.2142    0.0050 C.ar    1  LIG1       -0.0503
     23 H           0.6817    6.1986    0.0027 H       1  LIG1        0.0625
     24 H           2.6035    2.0962    0.0036 H       1  LIG1        0.0625
     25 H           2.9290    7.5111    0.0054 H       1  LIG1        0.0625
     26 C           5.1652    5.9878    0.0081 C.ar    1  LIG1        0.2033
     27 N           6.2392    5.1515    0.0089 N.ar    1  LIG1       -0.1258
     28 C           7.5978    7.1493    0.0116 C.ar    1  LIG1        0.1605
     29 N           5.1901    7.3487    0.0089 N.ar    1  LIG1       -0.1258
     30 N           7.4493    5.7488    0.0106 N.ar    1  LIG1       -0.1339
     31 N           6.4154    7.9143    0.0105 N.ar    1  LIG1       -0.1339
     32 H           8.7710    7.7094    0.0133 H       1  LIG1        0.1085
@<TRIPOS>BOND
     1     8     3    1
     2     6     1    1
     3     7     2    1
     4     2     3   ar
     5     2     1   ar
     6     3     4   ar
     7     1     5   ar
     8     4     5   ar
     9     4     9    1
    10     9    13   ar
    11     9    10   ar
    12    14    10    1
    13    13    12   ar
    14    10    11   ar
    15    12    11   ar
    16    12    18    1
    17    23    21    1
    18    11    15    1
    19    18    21   ar
    20    18    16   ar
    21    21    22   ar
    22    24    16    1
    23    16    17   ar
    24    22    25    1
    25    22    19   ar
    26    17    19   ar
    27    17    20    1
    28    19    26    1
    29    26    27   ar
    30    26    29   ar
    31    27    30   ar
    32    29    31   ar
    33    31    28   ar
    34    30    28   ar
    35    28    32    1
