@<TRIPOS>MOLECULE
mol_data/noopt/geoms/mol2/512-12-4-.out
 33 36 0 0 0
SMALL
GASTEIGER

@<TRIPOS>ATOM
      1 C          -2.0792   -1.7080   -0.0002 C.ar    1  LIG1       -0.0236
      2 C          -0.7020   -1.7080   -0.0002 C.ar    1  LIG1       -0.0540
      3 C          -0.1766   -0.3757   -0.0002 C.ar    1  LIG1       -0.0440
      4 C          -1.1831    0.5643    0.0006 C.ar    1  LIG1        0.0544
      5 S          -2.6937   -0.1528    0.0006 S.2     1  LIG1       -0.0936
      6 H          -2.8374   -2.7640   -0.0008 H       1  LIG1        0.0693
      7 H           0.0503   -2.7682   -0.0004 H       1  LIG1        0.0623
      8 H           1.0969   -0.1143   -0.0009 H       1  LIG1        0.0630
      9 C          -1.0166    1.8536    0.0014 C.ar    1  LIG1        0.1424
     10 C          -1.8501    2.9528    0.0020 C.ar    1  LIG1       -0.0146
     11 C          -0.9953    4.1216    0.0028 C.ar    1  LIG1       -0.0121
     12 C           0.3045    3.6589    0.0027 C.ar    1  LIG1        0.1706
     13 O           0.3174    2.2636    0.0019 O.2     1  LIG1       -0.4512
     14 H          -3.1501    2.9656    0.0019 H       1  LIG1        0.0656
     15 H          -1.4007    5.3568    0.0035 H       1  LIG1        0.0657
     16 C           1.4830    4.2076    0.0031 C.ar    1  LIG1        0.1706
     17 C           1.9662    5.4997    0.0034 C.ar    1  LIG1       -0.0122
     18 C           3.4110    5.4023    0.0038 C.ar    1  LIG1       -0.0151
     19 C           3.7150    4.0565    0.0038 C.ar    1  LIG1        0.1358
     20 O           2.5428    3.2996    0.0034 O.2     1  LIG1       -0.4517
     21 H           1.2819    6.6050    0.0033 H       1  LIG1        0.0657
     22 H           4.2379    6.4054    0.0042 H       1  LIG1        0.0656
     23 C           6.0604    4.0030    0.0033 C.ar    1  LIG1       -0.0511
     24 C           7.2156    3.1975    0.0020 C.ar    1  LIG1       -0.0611
     25 C           4.8088    3.3540    0.0040 C.ar    1  LIG1        0.0173
     26 C           7.1306    1.8070    0.0020 C.ar    1  LIG1       -0.0617
     27 H           8.1915    3.6777    0.0013 H       1  LIG1        0.0618
     28 C           4.7234    1.9660    0.0039 C.ar    1  LIG1       -0.0511
     29 C           5.8825    1.1830    0.0030 C.ar    1  LIG1       -0.0611
     30 H           3.7465    1.4891    0.0043 H       1  LIG1        0.0625
     31 H           8.2176    1.0939    0.0009 H       1  LIG1        0.0618
     32 H           6.2035    5.2951    0.0036 H       1  LIG1        0.0625
     33 H           5.7965   -0.1142    0.0028 H       1  LIG1        0.0618
@<TRIPOS>BOND
     1     8     3    1
     2     6     1    1
     3     7     2    1
     4     2     3   ar
     5     2     1   ar
     6     3     4   ar
     7     1     5   ar
     8     4     5   ar
     9     4     9    1
    10    31    26    1
    11    27    24    1
    12     9    13   ar
    13     9    10   ar
    14    14    10    1
    15    13    12   ar
    16    26    24   ar
    17    26    29   ar
    18    24    23   ar
    19    10    11   ar
    20    12    11   ar
    21    12    16    1
    22    11    15    1
    23    33    29    1
    24    29    28   ar
    25    16    17   ar
    26    16    20   ar
    27    21    17    1
    28    23    32    1
    29    23    25   ar
    30    17    18   ar
    31    20    19   ar
    32    19    18   ar
    33    19    25    1
    34    18    22    1
    35    28    25   ar
    36    28    30    1
