@<TRIPOS>MOLECULE
mol_data/noopt/geoms/mol2/512-5.out
 23 25 0 0 0
SMALL
GASTEIGER

@<TRIPOS>ATOM
      1 C          -2.0792   -1.7080   -0.0002 C.ar    1  LIG1       -0.0236
      2 C          -0.7020   -1.7080   -0.0002 C.ar    1  LIG1       -0.0540
      3 C          -0.1766   -0.3757   -0.0002 C.ar    1  LIG1       -0.0440
      4 C          -1.1831    0.5643    0.0006 C.ar    1  LIG1        0.0544
      5 S          -2.6937   -0.1528    0.0006 S.2     1  LIG1       -0.0936
      6 H          -2.8374   -2.7640   -0.0008 H       1  LIG1        0.0693
      7 H           0.0503   -2.7682   -0.0004 H       1  LIG1        0.0623
      8 H           1.0969   -0.1143   -0.0009 H       1  LIG1        0.0630
      9 C          -1.0166    1.8536    0.0014 C.ar    1  LIG1        0.1422
     10 C          -1.8501    2.9528    0.0020 C.ar    1  LIG1       -0.0147
     11 C          -0.9953    4.1216    0.0028 C.ar    1  LIG1       -0.0147
     12 C           0.3045    3.6589    0.0027 C.ar    1  LIG1        0.1422
     13 O           0.3174    2.2636    0.0019 O.2     1  LIG1       -0.4538
     14 H          -3.1501    2.9656    0.0019 H       1  LIG1        0.0656
     15 H          -1.4007    5.3568    0.0035 H       1  LIG1        0.0656
     16 C           1.4830    4.2076    0.0031 C.ar    1  LIG1        0.0544
     17 C           2.6834    3.5324    0.0030 C.ar    1  LIG1       -0.0440
     18 C           3.7945    4.4361    0.0028 C.ar    1  LIG1       -0.0540
     19 C           3.3780    5.7488    0.0035 C.ar    1  LIG1       -0.0236
     20 S           1.7099    5.8643    0.0038 S.2     1  LIG1       -0.0936
     21 H           4.1552    6.7909    0.0042 H       1  LIG1        0.0693
     22 H           2.8193    2.2396    0.0028 H       1  LIG1        0.0630
     23 H           5.0325    4.0396    0.0019 H       1  LIG1        0.0623
@<TRIPOS>BOND
     1     8     3    1
     2     6     1    1
     3     7     2    1
     4     2     3   ar
     5     2     1   ar
     6     3     4   ar
     7     1     5   ar
     8     4     5   ar
     9     4     9    1
    10     9    13   ar
    11     9    10   ar
    12    14    10    1
    13    23    18    1
    14    13    12   ar
    15    10    11   ar
    16    12    11   ar
    17    12    16    1
    18    18    17   ar
    19    18    19   ar
    20    11    15    1
    21    22    17    1
    22    17    16   ar
    23    16    20   ar
    24    19    20   ar
    25    19    21    1
