@<TRIPOS>MOLECULE
mol_data/noopt/geoms/mol2/512-.out
 16 17 0 0 0
SMALL
GASTEIGER

@<TRIPOS>ATOM
      1 C          -2.0792   -1.7080   -0.0002 C.ar    1  LIG1       -0.0236
      2 C          -0.7020   -1.7080   -0.0002 C.ar    1  LIG1       -0.0540
      3 C          -0.1766   -0.3757   -0.0002 C.ar    1  LIG1       -0.0440
      4 C          -1.1831    0.5643    0.0006 C.ar    1  LIG1        0.0544
      5 S          -2.6937   -0.1528    0.0006 S.2     1  LIG1       -0.0936
      6 H          -2.8374   -2.7640   -0.0008 H       1  LIG1        0.0693
      7 H           0.0503   -2.7682   -0.0004 H       1  LIG1        0.0623
      8 H           1.0969   -0.1143   -0.0009 H       1  LIG1        0.0630
      9 C          -1.0166    1.8536    0.0014 C.ar    1  LIG1        0.1413
     10 C          -1.8501    2.9528    0.0020 C.ar    1  LIG1       -0.0154
     11 C          -0.9953    4.1216    0.0028 C.ar    1  LIG1       -0.0233
     12 C           0.3045    3.6589    0.0027 C.ar    1  LIG1        0.0926
     13 O           0.3174    2.2636    0.0019 O.2     1  LIG1       -0.4624
     14 H           1.4830    4.2076    0.0031 H       1  LIG1        0.1029
     15 H          -3.1501    2.9656    0.0019 H       1  LIG1        0.0655
     16 H          -1.4007    5.3568    0.0035 H       1  LIG1        0.0649
@<TRIPOS>BOND
     1     8     3    1
     2     6     1    1
     3     7     2    1
     4     1     2   ar
     5     1     5   ar
     6     2     3   ar
     7     3     4   ar
     8     4     5   ar
     9     4     9    1
    10     9    13   ar
    11     9    10   ar
    12    15    10    1
    13    13    12   ar
    14    10    11   ar
    15    12    11   ar
    16    12    14    1
    17    11    16    1
