@<TRIPOS>MOLECULE
mol_data/noopt/geoms/mol2/512-8-5.out
 29 32 0 0 0
SMALL
GASTEIGER

@<TRIPOS>ATOM
      1 C          -2.0792   -1.7080   -0.0002 C.ar    1  LIG1       -0.0236
      2 C          -0.7020   -1.7080   -0.0002 C.ar    1  LIG1       -0.0540
      3 C          -0.1766   -0.3757   -0.0002 C.ar    1  LIG1       -0.0440
      4 C          -1.1831    0.5643    0.0006 C.ar    1  LIG1        0.0544
      5 S          -2.6937   -0.1528    0.0006 S.2     1  LIG1       -0.0936
      6 H          -2.8374   -2.7640   -0.0008 H       1  LIG1        0.0693
      7 H           0.0503   -2.7682   -0.0004 H       1  LIG1        0.0623
      8 H           1.0969   -0.1143   -0.0009 H       1  LIG1        0.0630
      9 C          -1.0166    1.8536    0.0014 C.ar    1  LIG1        0.1424
     10 C          -1.8501    2.9528    0.0020 C.ar    1  LIG1       -0.0146
     11 C          -0.9953    4.1216    0.0028 C.ar    1  LIG1       -0.0120
     12 C           0.3045    3.6589    0.0027 C.ar    1  LIG1        0.1760
     13 O           0.3174    2.2636    0.0019 O.2     1  LIG1       -0.4511
     14 H          -3.1501    2.9656    0.0019 H       1  LIG1        0.0656
     15 H          -1.4007    5.3568    0.0035 H       1  LIG1        0.0657
     16 C           1.4830    4.2076    0.0031 C.ar    1  LIG1        0.2381
     17 N           1.5212    5.5682    0.0033 N.ar    1  LIG1       -0.1220
     18 C           3.9269    5.3453    0.0039 C.ar    1  LIG1        0.2099
     19 N           2.5488    3.3609    0.0033 N.ar    1  LIG1       -0.1220
     20 N           2.7519    6.1218    0.0037 N.ar    1  LIG1       -0.1246
     21 N           3.7647    3.9464    0.0038 N.ar    1  LIG1       -0.1246
     22 C           5.1054    5.8940    0.0043 C.ar    1  LIG1        0.0598
     23 C           6.3057    5.2188    0.0042 C.ar    1  LIG1       -0.0438
     24 C           7.4168    6.1225    0.0040 C.ar    1  LIG1       -0.0540
     25 C           7.0004    7.4352    0.0048 C.ar    1  LIG1       -0.0236
     26 S           5.3322    7.5507    0.0050 S.2     1  LIG1       -0.0934
     27 H           7.7776    8.4773    0.0054 H       1  LIG1        0.0693
     28 H           6.4417    3.9260    0.0041 H       1  LIG1        0.0630
     29 H           8.6549    5.7260    0.0032 H       1  LIG1        0.0623
@<TRIPOS>BOND
     1     8     3    1
     2     6     1    1
     3     7     2    1
     4     2     3   ar
     5     2     1   ar
     6     3     4   ar
     7     1     5   ar
     8     4     5   ar
     9     4     9    1
    10     9    13   ar
    11     9    10   ar
    12    14    10    1
    13    13    12   ar
    14    10    11   ar
    15    12    11   ar
    16    12    16    1
    17    11    15    1
    18    16    17   ar
    19    16    19   ar
    20    29    24    1
    21    17    20   ar
    22    19    21   ar
    23    20    18   ar
    24    21    18   ar
    25    18    22    1
    26    24    23   ar
    27    24    25   ar
    28    28    23    1
    29    23    22   ar
    30    22    26   ar
    31    25    26   ar
    32    25    27    1
