@<TRIPOS>MOLECULE
mol_data/noopt/geoms/mol2/51213-.out
 24 26 0 0 0
SMALL
GASTEIGER

@<TRIPOS>ATOM
      1 C          -2.0792   -1.7080   -0.0002 C.ar    1  LIG1       -0.0236
      2 C          -0.7020   -1.7080   -0.0002 C.ar    1  LIG1       -0.0540
      3 C          -0.1766   -0.3757   -0.0002 C.ar    1  LIG1       -0.0440
      4 C          -1.1831    0.5643    0.0006 C.ar    1  LIG1        0.0544
      5 S          -2.6937   -0.1528    0.0006 S.2     1  LIG1       -0.0936
      6 H          -2.8374   -2.7640   -0.0008 H       1  LIG1        0.0693
      7 H           0.0503   -2.7682   -0.0004 H       1  LIG1        0.0623
      8 H           1.0969   -0.1143   -0.0009 H       1  LIG1        0.0630
      9 C          -1.0166    1.8536    0.0014 C.ar    1  LIG1        0.1423
     10 C           0.0688    2.7050    0.0020 C.ar    1  LIG1       -0.0147
     11 C          -0.4610    4.0526    0.0028 C.ar    1  LIG1       -0.0138
     12 C          -1.8358    3.9353    0.0025 C.ar    1  LIG1        0.1518
     13 O          -2.2026    2.5891    0.0016 O.2     1  LIG1       -0.4528
     14 H           1.3294    2.3871    0.0020 H       1  LIG1        0.0656
     15 H           0.2449    5.1443    0.0035 H       1  LIG1        0.0656
     16 C          -2.8362    4.7654    0.0029 C.ar    1  LIG1        0.0821
     17 C          -4.1755    4.5324    0.0037 C.ar    1  LIG1       -0.0334
     18 C          -4.8311    5.8056    0.0028 C.ar    1  LIG1       -0.0437
     19 C          -3.8635    6.7605    0.0032 C.ar    1  LIG1        0.0023
     20 N          -2.6407    6.1281    0.0028 N.ar    1  LIG1       -0.3583
     21 H          -1.7570    6.5831    0.0031 H       1  LIG1        0.1654
     22 H          -3.9580    8.0571    0.0028 H       1  LIG1        0.0807
     23 H          -4.7514    3.3670    0.0037 H       1  LIG1        0.0640
     24 H          -6.1143    6.0138    0.0021 H       1  LIG1        0.0633
@<TRIPOS>BOND
     1     8     3    1
     2     6     1    1
     3     7     2    1
     4     2     3   ar
     5     2     1   ar
     6     3     4   ar
     7     1     5   ar
     8     4     5   ar
     9     4     9    1
    10     9    13   ar
    11     9    10   ar
    12    13    12   ar
    13    10    14    1
    14    10    11   ar
    15    24    18    1
    16    12    11   ar
    17    12    16    1
    18    18    19   ar
    19    18    17   ar
    20    11    15    1
    21    22    19    1
    22    20    16   ar
    23    20    21    1
    24    20    19   ar
    25    16    17   ar
    26    23    17    1
