@<TRIPOS>MOLECULE
mol_data/noopt/geoms/mol2/512138.out
 30 33 0 0 0
SMALL
GASTEIGER

@<TRIPOS>ATOM
      1 C          -2.0792   -1.7080   -0.0002 C.ar    1  LIG1       -0.0236
      2 C          -0.7020   -1.7080   -0.0002 C.ar    1  LIG1       -0.0540
      3 C          -0.1766   -0.3757   -0.0002 C.ar    1  LIG1       -0.0440
      4 C          -1.1831    0.5643    0.0006 C.ar    1  LIG1        0.0544
      5 S          -2.6937   -0.1528    0.0006 S.2     1  LIG1       -0.0936
      6 H          -2.8374   -2.7640   -0.0008 H       1  LIG1        0.0693
      7 H           0.0503   -2.7682   -0.0004 H       1  LIG1        0.0623
      8 H           1.0969   -0.1143   -0.0009 H       1  LIG1        0.0630
      9 C          -1.0166    1.8536    0.0014 C.ar    1  LIG1        0.1423
     10 C           0.0688    2.7050    0.0020 C.ar    1  LIG1       -0.0147
     11 C          -0.4610    4.0526    0.0028 C.ar    1  LIG1       -0.0138
     12 C          -1.8358    3.9353    0.0025 C.ar    1  LIG1        0.1518
     13 O          -2.2026    2.5891    0.0016 O.2     1  LIG1       -0.4528
     14 H           1.3294    2.3871    0.0020 H       1  LIG1        0.0656
     15 H           0.2449    5.1443    0.0035 H       1  LIG1        0.0656
     16 C          -2.8362    4.7654    0.0029 C.ar    1  LIG1        0.0826
     17 C          -2.8544    6.1246    0.0029 C.ar    1  LIG1       -0.0327
     18 C          -4.2267    6.5340    0.0046 C.ar    1  LIG1       -0.0325
     19 C          -4.9867    5.4069    0.0039 C.ar    1  LIG1        0.0880
     20 N          -4.1394    4.3218    0.0033 N.ar    1  LIG1       -0.3492
     21 H          -4.4236    3.3693    0.0027 H       1  LIG1        0.1661
     22 H          -1.8152    6.9057    0.0028 H       1  LIG1        0.0640
     23 H          -4.6681    7.7567    0.0061 H       1  LIG1        0.0640
     24 C          -6.2784    5.2605    0.0047 C.ar    1  LIG1        0.2193
     25 N          -7.0205    6.4015    0.0051 N.ar    1  LIG1       -0.1243
     26 C          -8.9569    4.9568    0.0065 C.ar    1  LIG1        0.1605
     27 N          -6.7463    3.9822    0.0051 N.ar    1  LIG1       -0.1243
     28 N          -8.3593    6.2322    0.0060 N.ar    1  LIG1       -0.1338
     29 N          -8.0891    3.8478    0.0059 N.ar    1  LIG1       -0.1338
     30 H         -10.2487    4.8105    0.0073 H       1  LIG1        0.1085
@<TRIPOS>BOND
     1     8     3    1
     2     6     1    1
     3     7     2    1
     4     2     3   ar
     5     2     1   ar
     6     3     4   ar
     7     1     5   ar
     8     4     5   ar
     9     4     9    1
    10     9    13   ar
    11     9    10   ar
    12    13    12   ar
    13    10    14    1
    14    10    11   ar
    15    12    11   ar
    16    12    16    1
    17    21    20    1
    18    11    15    1
    19    22    17    1
    20    17    16   ar
    21    17    18   ar
    22    16    20   ar
    23    20    19   ar
    24    19    18   ar
    25    19    24    1
    26    18    23    1
    27    24    25   ar
    28    24    27   ar
    29    25    28   ar
    30    27    29   ar
    31    29    26   ar
    32    28    26   ar
    33    26    30    1
