@<TRIPOS>MOLECULE
mol_data/noopt/geoms/mol2/51212-.out
 23 25 0 0 0
SMALL
GASTEIGER

@<TRIPOS>ATOM
      1 C          -2.0792   -1.7080   -0.0002 C.ar    1  LIG1       -0.0236
      2 C          -0.7020   -1.7080   -0.0002 C.ar    1  LIG1       -0.0540
      3 C          -0.1766   -0.3757   -0.0002 C.ar    1  LIG1       -0.0440
      4 C          -1.1831    0.5643    0.0006 C.ar    1  LIG1        0.0544
      5 S          -2.6937   -0.1528    0.0006 S.2     1  LIG1       -0.0936
      6 H          -2.8374   -2.7640   -0.0008 H       1  LIG1        0.0693
      7 H           0.0503   -2.7682   -0.0004 H       1  LIG1        0.0623
      8 H           1.0969   -0.1143   -0.0009 H       1  LIG1        0.0630
      9 C          -1.0166    1.8536    0.0014 C.ar    1  LIG1        0.1424
     10 C           0.0688    2.7050    0.0020 C.ar    1  LIG1       -0.0146
     11 C          -0.4610    4.0526    0.0028 C.ar    1  LIG1       -0.0121
     12 C          -1.8358    3.9353    0.0025 C.ar    1  LIG1        0.1706
     13 O          -2.2026    2.5891    0.0016 O.2     1  LIG1       -0.4512
     14 H           1.3294    2.3871    0.0020 H       1  LIG1        0.0656
     15 H           0.2449    5.1443    0.0035 H       1  LIG1        0.0657
     16 C          -2.8362    4.7654    0.0029 C.ar    1  LIG1        0.1697
     17 C          -4.2108    4.6487    0.0033 C.ar    1  LIG1       -0.0128
     18 C          -4.7414    5.9961    0.0037 C.ar    1  LIG1       -0.0232
     19 C          -3.6553    6.8471    0.0037 C.ar    1  LIG1        0.0927
     20 O          -2.4694    6.1119    0.0033 O.2     1  LIG1       -0.4598
     21 H          -3.4888    8.1364    0.0039 H       1  LIG1        0.1029
     22 H          -4.9167    3.5571    0.0032 H       1  LIG1        0.0656
     23 H          -6.0019    6.3140    0.0041 H       1  LIG1        0.0649
@<TRIPOS>BOND
     1     8     3    1
     2     6     1    1
     3     7     2    1
     4     2     3   ar
     5     2     1   ar
     6     3     4   ar
     7     1     5   ar
     8     4     5   ar
     9     4     9    1
    10     9    13   ar
    11     9    10   ar
    12    13    12   ar
    13    10    14    1
    14    10    11   ar
    15    12    11   ar
    16    12    16    1
    17    11    15    1
    18    16    17   ar
    19    16    20   ar
    20    22    17    1
    21    17    18   ar
    22    20    19   ar
    23    19    18   ar
    24    19    21    1
    25    18    23    1
