@<TRIPOS>MOLECULE
mol_data/noopt/geoms/mol2/5124-.out
 26 28 0 0 0
SMALL
GASTEIGER

@<TRIPOS>ATOM
      1 C          -2.0792   -1.7080   -0.0002 C.ar    1  LIG1       -0.0236
      2 C          -0.7020   -1.7080   -0.0002 C.ar    1  LIG1       -0.0540
      3 C          -0.1766   -0.3757   -0.0002 C.ar    1  LIG1       -0.0440
      4 C          -1.1831    0.5643    0.0006 C.ar    1  LIG1        0.0544
      5 S          -2.6937   -0.1528    0.0006 S.2     1  LIG1       -0.0936
      6 H          -2.8374   -2.7640   -0.0008 H       1  LIG1        0.0693
      7 H           0.0503   -2.7682   -0.0004 H       1  LIG1        0.0623
      8 H           1.0969   -0.1143   -0.0009 H       1  LIG1        0.0630
      9 C          -1.0166    1.8536    0.0014 C.ar    1  LIG1        0.1422
     10 C           0.0688    2.7050    0.0020 C.ar    1  LIG1       -0.0147
     11 C          -0.4610    4.0526    0.0028 C.ar    1  LIG1       -0.0152
     12 C          -1.8358    3.9353    0.0025 C.ar    1  LIG1        0.1357
     13 O          -2.2026    2.5891    0.0016 O.2     1  LIG1       -0.4543
     14 H           1.3294    2.3871    0.0020 H       1  LIG1        0.0656
     15 H           0.2449    5.1443    0.0035 H       1  LIG1        0.0656
     16 C          -4.1574    4.2731    0.0024 C.ar    1  LIG1       -0.0511
     17 C          -5.2061    5.2130    0.0014 C.ar    1  LIG1       -0.0611
     18 C          -2.8362    4.7653    0.0029 C.ar    1  LIG1        0.0173
     19 C          -4.9530    6.5828    0.0014 C.ar    1  LIG1       -0.0617
     20 H          -6.2332    4.8548    0.0008 H       1  LIG1        0.0618
     21 C          -2.5829    6.1328    0.0030 C.ar    1  LIG1       -0.0511
     22 C          -3.6383    7.0507    0.0024 C.ar    1  LIG1       -0.0611
     23 H          -1.5554    6.4875    0.0033 H       1  LIG1        0.0625
     24 H          -5.9454    7.4226    0.0006 H       1  LIG1        0.0618
     25 H          -4.4563    3.0079    0.0026 H       1  LIG1        0.0625
     26 H          -3.3955    8.3278    0.0023 H       1  LIG1        0.0618
@<TRIPOS>BOND
     1     8     3    1
     2     6     1    1
     3     7     2    1
     4     2     3   ar
     5     2     1   ar
     6     3     4   ar
     7     1     5   ar
     8    24    19    1
     9     4     5   ar
    10     4     9    1
    11    20    17    1
    12    17    19   ar
    13    17    16   ar
    14     9    13   ar
    15     9    10   ar
    16    19    22   ar
    17    13    12   ar
    18    10    14    1
    19    10    11   ar
    20    26    22    1
    21    22    21   ar
    22    16    25    1
    23    16    18   ar
    24    12    11   ar
    25    12    18    1
    26    11    15    1
    27    18    21   ar
    28    21    23    1
