@<TRIPOS>MOLECULE
mol_data/noopt/geoms/mol2/5124.out
 26 28 0 0 0
SMALL
GASTEIGER

@<TRIPOS>ATOM
      1 C          -2.0792   -1.7080   -0.0002 C.ar    1  LIG1       -0.0236
      2 C          -0.7020   -1.7080   -0.0002 C.ar    1  LIG1       -0.0540
      3 C          -0.1766   -0.3757   -0.0002 C.ar    1  LIG1       -0.0440
      4 C          -1.1831    0.5643    0.0006 C.ar    1  LIG1        0.0544
      5 S          -2.6937   -0.1528    0.0006 S.2     1  LIG1       -0.0936
      6 H          -2.8374   -2.7640   -0.0008 H       1  LIG1        0.0693
      7 H           0.0503   -2.7682   -0.0004 H       1  LIG1        0.0623
      8 H           1.0969   -0.1143   -0.0009 H       1  LIG1        0.0630
      9 C          -1.0166    1.8536    0.0014 C.ar    1  LIG1        0.1422
     10 C           0.0688    2.7050    0.0020 C.ar    1  LIG1       -0.0147
     11 C          -0.4610    4.0526    0.0028 C.ar    1  LIG1       -0.0152
     12 C          -1.8358    3.9353    0.0025 C.ar    1  LIG1        0.1357
     13 O          -2.2026    2.5891    0.0016 O.2     1  LIG1       -0.4543
     14 H           1.3294    2.3871    0.0020 H       1  LIG1        0.0656
     15 H           0.2449    5.1443    0.0035 H       1  LIG1        0.0656
     16 C          -2.5962    6.1547    0.0039 C.ar    1  LIG1       -0.0511
     17 C          -3.7135    7.0120    0.0059 C.ar    1  LIG1       -0.0611
     18 C          -2.8362    4.7653    0.0029 C.ar    1  LIG1        0.0173
     19 C          -5.0131    6.5104    0.0063 C.ar    1  LIG1       -0.0617
     20 H          -3.5509    8.0875    0.0069 H       1  LIG1        0.0618
     21 C          -4.1334    4.2641    0.0033 C.ar    1  LIG1       -0.0511
     22 C          -5.2303    5.1320    0.0049 C.ar    1  LIG1       -0.0611
     23 H          -4.2924    3.1887    0.0026 H       1  LIG1        0.0625
     24 H          -6.0216    7.3308    0.0080 H       1  LIG1        0.0618
     25 H          -1.4079    6.6819    0.0034 H       1  LIG1        0.0625
     26 H          -6.4407    4.6576    0.0053 H       1  LIG1        0.0618
@<TRIPOS>BOND
     1     8     3    1
     2     6     1    1
     3     7     2    1
     4     2     3   ar
     5     2     1   ar
     6     3     4   ar
     7     1     5   ar
     8     4     5   ar
     9     4     9    1
    10     9    13   ar
    11     9    10   ar
    12    13    12   ar
    13    10    14    1
    14    10    11   ar
    15    12    11   ar
    16    12    18    1
    17    23    21    1
    18    11    15    1
    19    18    21   ar
    20    18    16   ar
    21    21    22   ar
    22    25    16    1
    23    16    17   ar
    24    22    26    1
    25    22    19   ar
    26    17    19   ar
    27    17    20    1
    28    19    24    1
