@<TRIPOS>MOLECULE
mol_data/noopt/geoms/mol2/51254.out
 33 36 0 0 0
SMALL
GASTEIGER

@<TRIPOS>ATOM
      1 C          -2.0792   -1.7080   -0.0002 C.ar    1  LIG1       -0.0236
      2 C          -0.7020   -1.7080   -0.0002 C.ar    1  LIG1       -0.0540
      3 C          -0.1766   -0.3757   -0.0002 C.ar    1  LIG1       -0.0440
      4 C          -1.1831    0.5643    0.0006 C.ar    1  LIG1        0.0544
      5 S          -2.6937   -0.1528    0.0006 S.2     1  LIG1       -0.0936
      6 H          -2.8374   -2.7640   -0.0008 H       1  LIG1        0.0693
      7 H           0.0503   -2.7682   -0.0004 H       1  LIG1        0.0623
      8 H           1.0969   -0.1143   -0.0009 H       1  LIG1        0.0630
      9 C          -1.0166    1.8536    0.0014 C.ar    1  LIG1        0.1422
     10 C           0.0688    2.7050    0.0020 C.ar    1  LIG1       -0.0147
     11 C          -0.4610    4.0526    0.0028 C.ar    1  LIG1       -0.0147
     12 C          -1.8358    3.9353    0.0025 C.ar    1  LIG1        0.1423
     13 O          -2.2026    2.5891    0.0016 O.2     1  LIG1       -0.4538
     14 H           1.3294    2.3871    0.0020 H       1  LIG1        0.0656
     15 H           0.2449    5.1443    0.0035 H       1  LIG1        0.0656
     16 C          -2.8362    4.7654    0.0029 C.ar    1  LIG1        0.0550
     17 C          -2.7400    6.1392    0.0028 C.ar    1  LIG1       -0.0434
     18 C          -4.0324    6.7564    0.0026 C.ar    1  LIG1       -0.0462
     19 C          -5.0404    5.8180    0.0034 C.ar    1  LIG1        0.0200
     20 S          -4.4305    4.2610    0.0036 S.2     1  LIG1       -0.0852
     21 H          -1.6299    6.8156    0.0027 H       1  LIG1        0.0630
     22 H          -4.2042    8.0450    0.0018 H       1  LIG1        0.0629
     23 C          -6.7627    7.4110    0.0052 C.ar    1  LIG1       -0.0535
     24 C          -8.1529    7.6357    0.0074 C.ar    1  LIG1       -0.0612
     25 C          -6.3148    6.0741    0.0041 C.ar    1  LIG1       -0.0113
     26 C          -9.0591    6.5776    0.0079 C.ar    1  LIG1       -0.0617
     27 H          -8.5201    8.6596    0.0085 H       1  LIG1        0.0618
     28 C          -7.2190    5.0174    0.0045 C.ar    1  LIG1       -0.0535
     29 C          -8.5964    5.2611    0.0063 C.ar    1  LIG1       -0.0612
     30 H          -6.8489    3.9954    0.0037 H       1  LIG1        0.0624
     31 H         -10.3360    6.8214    0.0098 H       1  LIG1        0.0618
     32 H          -5.9667    8.4388    0.0046 H       1  LIG1        0.0624
     33 H          -9.4369    4.2694    0.0069 H       1  LIG1        0.0618
@<TRIPOS>BOND
     1     8     3    1
     2     6     1    1
     3     7     2    1
     4     2     3   ar
     5     2     1   ar
     6     3     4   ar
     7     1     5   ar
     8     4     5   ar
     9     4     9    1
    10     9    13   ar
    11     9    10   ar
    12    13    12   ar
    13    22    18    1
    14    10    14    1
    15    10    11   ar
    16    12    11   ar
    17    12    16    1
    18    18    17   ar
    19    18    19   ar
    20    21    17    1
    21    11    15    1
    22    17    16   ar
    23    16    20   ar
    24    19    20   ar
    25    19    25    1
    26    30    28    1
    27    25    28   ar
    28    25    23   ar
    29    28    29   ar
    30    32    23    1
    31    23    24   ar
    32    29    33    1
    33    29    26   ar
    34    24    26   ar
    35    24    27    1
    36    26    31    1
