@<TRIPOS>MOLECULE
mol_data/noopt/geoms/mol2/513-4-5.out
 34 37 0 0 0
SMALL
GASTEIGER

@<TRIPOS>ATOM
      1 C          -2.0792   -1.7080   -0.0002 C.ar    1  LIG1       -0.0237
      2 C          -0.7020   -1.7080   -0.0002 C.ar    1  LIG1       -0.0541
      3 C          -0.1766   -0.3757   -0.0002 C.ar    1  LIG1       -0.0455
      4 C          -1.1831    0.5643    0.0006 C.ar    1  LIG1        0.0355
      5 S          -2.6937   -0.1528    0.0006 S.2     1  LIG1       -0.0952
      6 H          -2.8374   -2.7640   -0.0008 H       1  LIG1        0.0693
      7 H           0.0503   -2.7682   -0.0004 H       1  LIG1        0.0623
      8 H           1.0969   -0.1143   -0.0009 H       1  LIG1        0.0629
      9 C          -1.0166    1.8536    0.0014 C.ar    1  LIG1        0.0536
     10 C          -1.9296    2.8608    0.0024 C.ar    1  LIG1       -0.0353
     11 C          -1.2043    4.0955    0.0019 C.ar    1  LIG1       -0.0358
     12 C           0.1201    3.7885    0.0023 C.ar    1  LIG1        0.0469
     13 N           0.2394    2.4171    0.0015 N.ar    1  LIG1       -0.3537
     14 H           1.0965    1.9136    0.0017 H       1  LIG1        0.1659
     15 H          -3.2224    2.7243    0.0023 H       1  LIG1        0.0639
     16 H          -1.7145    5.2912    0.0015 H       1  LIG1        0.0639
     17 C           1.0028    5.9622    0.0013 C.ar    1  LIG1       -0.0520
     18 C           2.1661    6.7560   -0.0003 C.ar    1  LIG1       -0.0529
     19 C           1.1651    4.5617    0.0021 C.ar    1  LIG1       -0.0017
     20 C           3.4358    6.1829   -0.0005 C.ar    1  LIG1       -0.0113
     21 H           2.0636    7.8389   -0.0012 H       1  LIG1        0.0624
     22 C           2.4325    3.9890    0.0019 C.ar    1  LIG1       -0.0520
     23 C           3.5760    4.7945    0.0007 C.ar    1  LIG1       -0.0529
     24 H           2.5314    2.9065    0.0025 H       1  LIG1        0.0624
     25 H          -0.1543    6.5547    0.0017 H       1  LIG1        0.0624
     26 H           4.7581    4.2536    0.0004 H       1  LIG1        0.0624
     27 C           4.4883    6.9459   -0.0019 C.ar    1  LIG1        0.0193
     28 C           5.7952    6.5115   -0.0032 C.ar    1  LIG1       -0.0469
     29 C           6.7140    7.6101   -0.0053 C.ar    1  LIG1       -0.0541
     30 C           6.0553    8.8196   -0.0048 C.ar    1  LIG1       -0.0237
     31 S           4.3957    8.6155   -0.0025 S.2     1  LIG1       -0.0967
     32 H           6.6200    9.9906   -0.0058 H       1  LIG1        0.0693
     33 H           6.1748    5.2681   -0.0027 H       1  LIG1        0.0629
     34 H           8.0049    7.4565   -0.0075 H       1  LIG1        0.0623
@<TRIPOS>BOND
     1    34    29    1
     2    32    30    1
     3    29    30   ar
     4    29    28   ar
     5    30    31   ar
     6    28    33    1
     7    28    27   ar
     8    31    27   ar
     9    27    20    1
    10    21    18    1
    11     8     3    1
    12     6     1    1
    13    20    18   ar
    14    20    23   ar
    15     7     2    1
    16    18    17   ar
    17     1     2   ar
    18     1     5   ar
    19     2     3   ar
    20     3     4   ar
    21    26    23    1
    22     4     5   ar
    23     4     9    1
    24    23    22   ar
    25    17    25    1
    26    17    19   ar
    27     9    13   ar
    28     9    10   ar
    29    13    14    1
    30    13    12   ar
    31    16    11    1
    32    11    12   ar
    33    11    10   ar
    34    22    19   ar
    35    22    24    1
    36    19    12    1
    37    15    10    1
