@<TRIPOS>MOLECULE
mol_data/noopt/geoms/mol2/513-512-.out
 31 34 0 0 0
SMALL
GASTEIGER

@<TRIPOS>ATOM
      1 C          -2.0792   -1.7080   -0.0002 C.ar    1  LIG1       -0.0237
      2 C          -0.7020   -1.7080   -0.0002 C.ar    1  LIG1       -0.0541
      3 C          -0.1766   -0.3757   -0.0002 C.ar    1  LIG1       -0.0455
      4 C          -1.1831    0.5643    0.0006 C.ar    1  LIG1        0.0355
      5 S          -2.6937   -0.1528    0.0006 S.2     1  LIG1       -0.0952
      6 H          -2.8374   -2.7640   -0.0008 H       1  LIG1        0.0693
      7 H           0.0503   -2.7682   -0.0004 H       1  LIG1        0.0623
      8 H           1.0969   -0.1143   -0.0009 H       1  LIG1        0.0629
      9 C          -1.0166    1.8536    0.0014 C.ar    1  LIG1        0.0536
     10 C          -1.9296    2.8608    0.0024 C.ar    1  LIG1       -0.0353
     11 C          -1.2043    4.0955    0.0019 C.ar    1  LIG1       -0.0353
     12 C           0.1201    3.7885    0.0023 C.ar    1  LIG1        0.0536
     13 N           0.2394    2.4171    0.0015 N.ar    1  LIG1       -0.3533
     14 H           1.0965    1.9136    0.0017 H       1  LIG1        0.1659
     15 H          -3.2224    2.7243    0.0023 H       1  LIG1        0.0639
     16 H          -1.7145    5.2912    0.0015 H       1  LIG1        0.0639
     17 C           1.1652    4.5617    0.0021 C.ar    1  LIG1        0.0362
     18 C           2.4762    4.1400    0.0017 C.ar    1  LIG1       -0.0448
     19 C           3.3843    5.2475    0.0009 C.ar    1  LIG1       -0.0433
     20 C           2.7139    6.4505    0.0016 C.ar    1  LIG1        0.0550
     21 S           1.0563    6.2304    0.0024 S.2     1  LIG1       -0.0837
     22 H           2.8678    2.9004    0.0017 H       1  LIG1        0.0630
     23 H           4.6766    5.1064   -0.0003 H       1  LIG1        0.0630
     24 C           3.2672    7.6269    0.0018 C.ar    1  LIG1        0.1413
     25 C           2.8102    8.9285    0.0019 C.ar    1  LIG1       -0.0154
     26 C           3.9819    9.7795    0.0021 C.ar    1  LIG1       -0.0233
     27 C           5.0776    8.9410    0.0021 C.ar    1  LIG1        0.0926
     28 O           4.6627    7.6088    0.0020 O.2     1  LIG1       -0.4624
     29 H           6.3675    9.1025    0.0022 H       1  LIG1        0.1029
     30 H           1.5766    9.3387    0.0019 H       1  LIG1        0.0655
     31 H           3.9741   11.0795    0.0023 H       1  LIG1        0.0649
@<TRIPOS>BOND
     1     8     3    1
     2     6     1    1
     3     7     2    1
     4    23    19    1
     5     2     3   ar
     6     2     1   ar
     7     3     4   ar
     8     1     5   ar
     9     4     5   ar
    10     4     9    1
    11    19    20   ar
    12    19    18   ar
    13     9    13   ar
    14     9    10   ar
    15    13    14    1
    16    13    12   ar
    17    16    11    1
    18    20    24    1
    19    20    21   ar
    20    18    22    1
    21    18    17   ar
    22    24    25   ar
    23    24    28   ar
    24    30    25    1
    25    11    12   ar
    26    11    10   ar
    27    25    26   ar
    28    28    27   ar
    29    26    27   ar
    30    26    31    1
    31    27    29    1
    32    17    12    1
    33    17    21   ar
    34    15    10    1
