@<TRIPOS>MOLECULE
mol_data/noopt/geoms/mol2/513-4-.out
 27 29 0 0 0
SMALL
GASTEIGER

@<TRIPOS>ATOM
      1 C          -2.0792   -1.7080   -0.0002 C.ar    1  LIG1       -0.0237
      2 C          -0.7020   -1.7080   -0.0002 C.ar    1  LIG1       -0.0541
      3 C          -0.1766   -0.3757   -0.0002 C.ar    1  LIG1       -0.0455
      4 C          -1.1831    0.5643    0.0006 C.ar    1  LIG1        0.0355
      5 S          -2.6937   -0.1528    0.0006 S.2     1  LIG1       -0.0952
      6 H          -2.8374   -2.7640   -0.0008 H       1  LIG1        0.0693
      7 H           0.0503   -2.7682   -0.0004 H       1  LIG1        0.0623
      8 H           1.0969   -0.1143   -0.0009 H       1  LIG1        0.0629
      9 C          -1.0166    1.8536    0.0014 C.ar    1  LIG1        0.0536
     10 C          -1.9296    2.8608    0.0024 C.ar    1  LIG1       -0.0353
     11 C          -1.2043    4.0955    0.0019 C.ar    1  LIG1       -0.0358
     12 C           0.1201    3.7885    0.0023 C.ar    1  LIG1        0.0469
     13 N           0.2394    2.4171    0.0015 N.ar    1  LIG1       -0.3537
     14 H           1.0965    1.9136    0.0017 H       1  LIG1        0.1659
     15 H          -3.2224    2.7243    0.0023 H       1  LIG1        0.0639
     16 H          -1.7145    5.2912    0.0015 H       1  LIG1        0.0639
     17 C           1.0028    5.9622    0.0013 C.ar    1  LIG1       -0.0526
     18 C           2.1661    6.7560   -0.0003 C.ar    1  LIG1       -0.0611
     19 C           1.1651    4.5617    0.0021 C.ar    1  LIG1       -0.0017
     20 C           3.4358    6.1829   -0.0005 C.ar    1  LIG1       -0.0617
     21 H           2.0636    7.8389   -0.0012 H       1  LIG1        0.0618
     22 C           2.4325    3.9890    0.0019 C.ar    1  LIG1       -0.0526
     23 C           3.5760    4.7945    0.0007 C.ar    1  LIG1       -0.0611
     24 H           2.5314    2.9065    0.0025 H       1  LIG1        0.0624
     25 H           4.4883    6.9459   -0.0019 H       1  LIG1        0.0618
     26 H          -0.1543    6.5547    0.0017 H       1  LIG1        0.0624
     27 H           4.7581    4.2536    0.0004 H       1  LIG1        0.0618
@<TRIPOS>BOND
     1    25    20    1
     2    21    18    1
     3     8     3    1
     4     6     1    1
     5    20    18   ar
     6    20    23   ar
     7     7     2    1
     8    18    17   ar
     9     2     3   ar
    10     2     1   ar
    11     3     4   ar
    12     1     5   ar
    13    27    23    1
    14     5     4   ar
    15     4     9    1
    16    23    22   ar
    17    17    26    1
    18    17    19   ar
    19     9    13   ar
    20     9    10   ar
    21    13    14    1
    22    13    12   ar
    23    16    11    1
    24    11    12   ar
    25    11    10   ar
    26    22    19   ar
    27    22    24    1
    28    19    12    1
    29    15    10    1
