@<TRIPOS>MOLECULE
mol_data/noopt/geoms/mol2/513-48.out
 33 36 0 0 0
SMALL
GASTEIGER

@<TRIPOS>ATOM
      1 C          -2.0792   -1.7080   -0.0002 C.ar    1  LIG1       -0.0237
      2 C          -0.7020   -1.7080   -0.0002 C.ar    1  LIG1       -0.0541
      3 C          -0.1766   -0.3757   -0.0002 C.ar    1  LIG1       -0.0455
      4 C          -1.1831    0.5643    0.0006 C.ar    1  LIG1        0.0355
      5 S          -2.6937   -0.1528    0.0006 S.2     1  LIG1       -0.0952
      6 H          -2.8374   -2.7640   -0.0008 H       1  LIG1        0.0693
      7 H           0.0503   -2.7682   -0.0004 H       1  LIG1        0.0623
      8 H           1.0969   -0.1143   -0.0009 H       1  LIG1        0.0629
      9 C          -1.0166    1.8536    0.0014 C.ar    1  LIG1        0.0536
     10 C          -1.9296    2.8608    0.0024 C.ar    1  LIG1       -0.0353
     11 C          -1.2043    4.0955    0.0019 C.ar    1  LIG1       -0.0358
     12 C           0.1201    3.7885    0.0023 C.ar    1  LIG1        0.0469
     13 N           0.2394    2.4171    0.0015 N.ar    1  LIG1       -0.3537
     14 H           1.0965    1.9136    0.0017 H       1  LIG1        0.1659
     15 H          -3.2224    2.7243    0.0023 H       1  LIG1        0.0639
     16 H          -1.7145    5.2912    0.0015 H       1  LIG1        0.0639
     17 C           2.4569    3.9967    0.0028 C.ar    1  LIG1       -0.0520
     18 C           3.5563    4.8767    0.0042 C.ar    1  LIG1       -0.0503
     19 C           1.1651    4.5617    0.0021 C.ar    1  LIG1       -0.0017
     20 C           3.3798    6.2586    0.0043 C.ar    1  LIG1        0.0227
     21 H           4.5618    4.4619    0.0050 H       1  LIG1        0.0625
     22 C           0.9883    5.9411    0.0022 C.ar    1  LIG1       -0.0520
     23 C           2.0932    6.7989    0.0032 C.ar    1  LIG1       -0.0503
     24 H          -0.0179    6.3524    0.0018 H       1  LIG1        0.0624
     25 H           2.6849    2.7168    0.0026 H       1  LIG1        0.0624
     26 H           1.9218    8.0875    0.0034 H       1  LIG1        0.0625
     27 C           4.4174    7.0418    0.0055 C.ar    1  LIG1        0.2033
     28 N           5.6367    6.4370    0.0060 N.ar    1  LIG1       -0.1258
     29 C           6.5688    8.6660    0.0079 C.ar    1  LIG1        0.1605
     30 N           4.1698    8.3803    0.0060 N.ar    1  LIG1       -0.1258
     31 N           6.7031    7.2640    0.0072 N.ar    1  LIG1       -0.1339
     32 N           5.2573    9.1793    0.0071 N.ar    1  LIG1       -0.1339
     33 H           7.6063    9.4493    0.0091 H       1  LIG1        0.1085
@<TRIPOS>BOND
     1     8     3    1
     2     6     1    1
     3     7     2    1
     4     2     3   ar
     5     2     1   ar
     6     3     4   ar
     7     1     5   ar
     8     4     5   ar
     9     4     9    1
    10     9    13   ar
    11     9    10   ar
    12    13    14    1
    13    13    12   ar
    14    16    11    1
    15    24    22    1
    16    11    12   ar
    17    11    10   ar
    18    19    22   ar
    19    19    12    1
    20    19    17   ar
    21    22    23   ar
    22    15    10    1
    23    25    17    1
    24    17    18   ar
    25    23    26    1
    26    23    20   ar
    27    18    20   ar
    28    18    21    1
    29    20    27    1
    30    27    28   ar
    31    27    30   ar
    32    28    31   ar
    33    30    32   ar
    34    32    29   ar
    35    31    29   ar
    36    29    33    1
