@<TRIPOS>MOLECULE
mol_data/noopt/geoms/mol2/513-.out
 17 18 0 0 0
SMALL
GASTEIGER

@<TRIPOS>ATOM
      1 C          -2.0792   -1.7080   -0.0002 C.ar    1  LIG1       -0.0237
      2 C          -0.7020   -1.7080   -0.0002 C.ar    1  LIG1       -0.0541
      3 C          -0.1766   -0.3757   -0.0002 C.ar    1  LIG1       -0.0455
      4 C          -1.1831    0.5643    0.0006 C.ar    1  LIG1        0.0354
      5 S          -2.6937   -0.1528    0.0006 S.2     1  LIG1       -0.0952
      6 H          -2.8374   -2.7640   -0.0008 H       1  LIG1        0.0693
      7 H           0.0503   -2.7682   -0.0004 H       1  LIG1        0.0623
      8 H           1.0969   -0.1143   -0.0009 H       1  LIG1        0.0629
      9 C          -1.0166    1.8536    0.0014 C.ar    1  LIG1        0.0531
     10 C          -1.9296    2.8608    0.0024 C.ar    1  LIG1       -0.0359
     11 C          -1.2043    4.0955    0.0019 C.ar    1  LIG1       -0.0438
     12 C           0.1201    3.7885    0.0023 C.ar    1  LIG1        0.0022
     13 N           0.2394    2.4171    0.0015 N.ar    1  LIG1       -0.3603
     14 H           1.0965    1.9136    0.0017 H       1  LIG1        0.1653
     15 H           1.1652    4.5617    0.0021 H       1  LIG1        0.0807
     16 H          -3.2224    2.7243    0.0023 H       1  LIG1        0.0639
     17 H          -1.7145    5.2912    0.0015 H       1  LIG1        0.0633
@<TRIPOS>BOND
     1     8     3    1
     2     6     1    1
     3     7     2    1
     4     2     3   ar
     5     2     1   ar
     6     3     4   ar
     7     1     5   ar
     8     4     5   ar
     9     4     9    1
    10     9    13   ar
    11     9    10   ar
    12    13    14    1
    13    13    12   ar
    14    17    11    1
    15    11    12   ar
    16    11    10   ar
    17    15    12    1
    18    16    10    1
