@<TRIPOS>MOLECULE
mol_data/noopt/geoms/mol2/513-13-.out
 25 27 0 0 0
SMALL
GASTEIGER

@<TRIPOS>ATOM
      1 C          -2.0792   -1.7080   -0.0002 C.ar    1  LIG1       -0.0237
      2 C          -0.7020   -1.7080   -0.0002 C.ar    1  LIG1       -0.0541
      3 C          -0.1766   -0.3757   -0.0002 C.ar    1  LIG1       -0.0455
      4 C          -1.1831    0.5643    0.0006 C.ar    1  LIG1        0.0355
      5 S          -2.6937   -0.1528    0.0006 S.2     1  LIG1       -0.0952
      6 H          -2.8374   -2.7640   -0.0008 H       1  LIG1        0.0693
      7 H           0.0503   -2.7682   -0.0004 H       1  LIG1        0.0623
      8 H           1.0969   -0.1143   -0.0009 H       1  LIG1        0.0629
      9 C          -1.0166    1.8536    0.0014 C.ar    1  LIG1        0.0536
     10 C          -1.9296    2.8608    0.0024 C.ar    1  LIG1       -0.0353
     11 C          -1.2043    4.0955    0.0019 C.ar    1  LIG1       -0.0344
     12 C           0.1201    3.7885    0.0023 C.ar    1  LIG1        0.0633
     13 N           0.2394    2.4171    0.0015 N.ar    1  LIG1       -0.3526
     14 H           1.0965    1.9136    0.0017 H       1  LIG1        0.1660
     15 H          -3.2224    2.7243    0.0023 H       1  LIG1        0.0639
     16 H          -1.7145    5.2912    0.0015 H       1  LIG1        0.0639
     17 C           1.1652    4.5617    0.0021 C.ar    1  LIG1        0.0629
     18 C           1.2590    5.9179    0.0026 C.ar    1  LIG1       -0.0350
     19 C           2.6519    6.2502    0.0011 C.ar    1  LIG1       -0.0438
     20 C           3.3480    5.0825    0.0015 C.ar    1  LIG1        0.0022
     21 N           2.4417    4.0463    0.0017 N.ar    1  LIG1       -0.3595
     22 H           2.6724    3.0794    0.0022 H       1  LIG1        0.1654
     23 H           4.6296    4.8645    0.0008 H       1  LIG1        0.0807
     24 H           0.2649    6.7556    0.0027 H       1  LIG1        0.0639
     25 H           3.1607    7.4465   -0.0001 H       1  LIG1        0.0633
@<TRIPOS>BOND
     1     8     3    1
     2     6     1    1
     3     7     2    1
     4     2     3   ar
     5     2     1   ar
     6     3     4   ar
     7     1     5   ar
     8    25    19    1
     9     5     4   ar
    10     4     9    1
    11    23    20    1
    12    19    20   ar
    13    19    18   ar
    14     9    13   ar
    15     9    10   ar
    16    13    14    1
    17    13    12   ar
    18    16    11    1
    19    20    21   ar
    20    21    17   ar
    21    21    22    1
    22    11    12   ar
    23    11    10   ar
    24    17    12    1
    25    17    18   ar
    26    15    10    1
    27    18    24    1
