@<TRIPOS>MOLECULE
mol_data/noopt/geoms/mol2/513-1312.out
 32 35 0 0 0
SMALL
GASTEIGER

@<TRIPOS>ATOM
      1 C          -2.0792   -1.7080   -0.0002 C.ar    1  LIG1       -0.0237
      2 C          -0.7020   -1.7080   -0.0002 C.ar    1  LIG1       -0.0541
      3 C          -0.1766   -0.3757   -0.0002 C.ar    1  LIG1       -0.0455
      4 C          -1.1831    0.5643    0.0006 C.ar    1  LIG1        0.0355
      5 S          -2.6937   -0.1528    0.0006 S.2     1  LIG1       -0.0952
      6 H          -2.8374   -2.7640   -0.0008 H       1  LIG1        0.0693
      7 H           0.0503   -2.7682   -0.0004 H       1  LIG1        0.0623
      8 H           1.0969   -0.1143   -0.0009 H       1  LIG1        0.0629
      9 C          -1.0166    1.8536    0.0014 C.ar    1  LIG1        0.0536
     10 C          -1.9296    2.8608    0.0024 C.ar    1  LIG1       -0.0353
     11 C          -1.2043    4.0955    0.0019 C.ar    1  LIG1       -0.0344
     12 C           0.1201    3.7885    0.0023 C.ar    1  LIG1        0.0633
     13 N           0.2394    2.4171    0.0015 N.ar    1  LIG1       -0.3526
     14 H           1.0965    1.9136    0.0017 H       1  LIG1        0.1660
     15 H          -3.2224    2.7243    0.0023 H       1  LIG1        0.0639
     16 H          -1.7145    5.2912    0.0015 H       1  LIG1        0.0639
     17 C           1.1652    4.5617    0.0021 C.ar    1  LIG1        0.0634
     18 C           2.4894    4.2546    0.0017 C.ar    1  LIG1       -0.0343
     19 C           3.2148    5.4893    0.0029 C.ar    1  LIG1       -0.0328
     20 C           2.3019    6.4966    0.0022 C.ar    1  LIG1        0.0826
     21 N           1.0458    5.9331    0.0022 N.ar    1  LIG1       -0.3506
     22 H           0.1888    6.4367    0.0017 H       1  LIG1        0.1660
     23 H           2.9996    3.0589    0.0018 H       1  LIG1        0.0639
     24 H           4.5076    5.6258    0.0039 H       1  LIG1        0.0640
     25 C           2.4684    7.7859    0.0027 C.ar    1  LIG1        0.1509
     26 C           3.5538    8.6373    0.0031 C.ar    1  LIG1       -0.0144
     27 C           3.0240    9.9849    0.0035 C.ar    1  LIG1       -0.0233
     28 C           1.6493    9.8676    0.0033 C.ar    1  LIG1        0.0926
     29 O           1.2824    8.5214    0.0027 O.2     1  LIG1       -0.4615
     30 H           0.6488   10.6977    0.0036 H       1  LIG1        0.1029
     31 H           4.8144    8.3194    0.0031 H       1  LIG1        0.0656
     32 H           3.7299   11.0766    0.0039 H       1  LIG1        0.0649
@<TRIPOS>BOND
     1     8     3    1
     2     6     1    1
     3     7     2    1
     4     2     3   ar
     5     2     1   ar
     6     3     4   ar
     7     1     5   ar
     8     4     5   ar
     9     4     9    1
    10     9    13   ar
    11     9    10   ar
    12    13    14    1
    13    13    12   ar
    14    16    11    1
    15    18    23    1
    16    18    17   ar
    17    18    19   ar
    18    22    21    1
    19    11    12   ar
    20    11    10   ar
    21    17    21   ar
    22    17    12    1
    23    20    21   ar
    24    20    25    1
    25    20    19   ar
    26    15    10    1
    27    25    29   ar
    28    25    26   ar
    29    29    28   ar
    30    19    24    1
    31    26    31    1
    32    26    27   ar
    33    28    27   ar
    34    28    30    1
    35    27    32    1
