@<TRIPOS>MOLECULE
mol_data/noopt/geoms/mol2/513-12.out
 24 26 0 0 0
SMALL
GASTEIGER

@<TRIPOS>ATOM
      1 C          -2.0792   -1.7080   -0.0002 C.ar    1  LIG1       -0.0237
      2 C          -0.7020   -1.7080   -0.0002 C.ar    1  LIG1       -0.0541
      3 C          -0.1766   -0.3757   -0.0002 C.ar    1  LIG1       -0.0455
      4 C          -1.1831    0.5643    0.0006 C.ar    1  LIG1        0.0355
      5 S          -2.6937   -0.1528    0.0006 S.2     1  LIG1       -0.0952
      6 H          -2.8374   -2.7640   -0.0008 H       1  LIG1        0.0693
      7 H           0.0503   -2.7682   -0.0004 H       1  LIG1        0.0623
      8 H           1.0969   -0.1143   -0.0009 H       1  LIG1        0.0629
      9 C          -1.0166    1.8536    0.0014 C.ar    1  LIG1        0.0536
     10 C          -1.9296    2.8608    0.0024 C.ar    1  LIG1       -0.0352
     11 C          -1.2043    4.0955    0.0019 C.ar    1  LIG1       -0.0328
     12 C           0.1201    3.7885    0.0023 C.ar    1  LIG1        0.0825
     13 N           0.2394    2.4171    0.0015 N.ar    1  LIG1       -0.3514
     14 H           1.0965    1.9136    0.0017 H       1  LIG1        0.1660
     15 H          -3.2224    2.7243    0.0023 H       1  LIG1        0.0639
     16 H          -1.7145    5.2912    0.0015 H       1  LIG1        0.0640
     17 C           1.1652    4.5617    0.0021 C.ar    1  LIG1        0.1509
     18 C           2.5311    4.3688    0.0020 C.ar    1  LIG1       -0.0144
     19 C           3.1359    5.6845    0.0019 C.ar    1  LIG1       -0.0233
     20 C           2.0988    6.5946    0.0019 C.ar    1  LIG1        0.0926
     21 O           0.8739    5.9265    0.0019 O.2     1  LIG1       -0.4615
     22 H           2.0043    7.8911    0.0018 H       1  LIG1        0.1029
     23 H           3.1752    3.2395    0.0022 H       1  LIG1        0.0656
     24 H           4.4121    5.9317    0.0018 H       1  LIG1        0.0649
@<TRIPOS>BOND
     1     8     3    1
     2     6     1    1
     3     7     2    1
     4     2     3   ar
     5     2     1   ar
     6     3     4   ar
     7     1     5   ar
     8     4     5   ar
     9     4     9    1
    10     9    13   ar
    11     9    10   ar
    12    13    14    1
    13    13    12   ar
    14    16    11    1
    15    22    20    1
    16    24    19    1
    17    20    21   ar
    18    20    19   ar
    19    11    12   ar
    20    11    10   ar
    21    21    17   ar
    22    19    18   ar
    23    18    17   ar
    24    18    23    1
    25    17    12    1
    26    15    10    1
