@<TRIPOS>MOLECULE
mol_data/noopt/geoms/mol2/51313-.out
 25 27 0 0 0
SMALL
GASTEIGER

@<TRIPOS>ATOM
      1 C          -2.0792   -1.7080   -0.0002 C.ar    1  LIG1       -0.0237
      2 C          -0.7020   -1.7080   -0.0002 C.ar    1  LIG1       -0.0541
      3 C          -0.1766   -0.3757   -0.0002 C.ar    1  LIG1       -0.0455
      4 C          -1.1831    0.5643    0.0006 C.ar    1  LIG1        0.0355
      5 S          -2.6937   -0.1528    0.0006 S.2     1  LIG1       -0.0952
      6 H          -2.8374   -2.7640   -0.0008 H       1  LIG1        0.0693
      7 H           0.0503   -2.7682   -0.0004 H       1  LIG1        0.0623
      8 H           1.0969   -0.1143   -0.0009 H       1  LIG1        0.0629
      9 C          -1.0166    1.8536    0.0014 C.ar    1  LIG1        0.0536
     10 C           0.1223    2.5958    0.0016 C.ar    1  LIG1       -0.0353
     11 C          -0.2656    3.9743    0.0037 C.ar    1  LIG1       -0.0344
     12 C          -1.6244    4.0138    0.0030 C.ar    1  LIG1        0.0633
     13 N          -2.0883    2.7177    0.0020 N.ar    1  LIG1       -0.3526
     14 H          -3.0451    2.4484    0.0012 H       1  LIG1        0.1660
     15 H           1.3380    2.1353    0.0015 H       1  LIG1        0.0639
     16 H           0.5317    5.0011    0.0055 H       1  LIG1        0.0639
     17 C          -2.4388    5.0271    0.0041 C.ar    1  LIG1        0.0629
     18 C          -3.7976    5.0665    0.0053 C.ar    1  LIG1       -0.0350
     19 C          -4.1855    6.4450    0.0050 C.ar    1  LIG1       -0.0438
     20 C          -3.0467    7.1873    0.0054 C.ar    1  LIG1        0.0022
     21 N          -1.9750    6.3232    0.0043 N.ar    1  LIG1       -0.3595
     22 H          -1.0181    6.5925    0.0044 H       1  LIG1        0.1654
     23 H          -2.8802    8.4766    0.0055 H       1  LIG1        0.0807
     24 H          -4.5948    4.0396    0.0051 H       1  LIG1        0.0639
     25 H          -5.4013    6.9054    0.0050 H       1  LIG1        0.0633
@<TRIPOS>BOND
     1     8     3    1
     2     6     1    1
     3     7     2    1
     4     2     3   ar
     5     2     1   ar
     6     3     4   ar
     7     1     5   ar
     8     4     5   ar
     9     4     9    1
    10    14    13    1
    11     9    10   ar
    12     9    13   ar
    13    15    10    1
    14    10    11   ar
    15    13    12   ar
    16    12    11   ar
    17    12    17    1
    18    11    16    1
    19    17    21   ar
    20    17    18   ar
    21    21    22    1
    22    21    20   ar
    23    25    19    1
    24    19    18   ar
    25    19    20   ar
    26    24    18    1
    27    20    23    1
