@<TRIPOS>MOLECULE
mol_data/noopt/geoms/mol2/513124.out
 34 37 0 0 0
SMALL
GASTEIGER

@<TRIPOS>ATOM
      1 C          -2.0792   -1.7080   -0.0002 C.ar    1  LIG1       -0.0237
      2 C          -0.7020   -1.7080   -0.0002 C.ar    1  LIG1       -0.0541
      3 C          -0.1766   -0.3757   -0.0002 C.ar    1  LIG1       -0.0455
      4 C          -1.1831    0.5643    0.0006 C.ar    1  LIG1        0.0355
      5 S          -2.6937   -0.1528    0.0006 S.2     1  LIG1       -0.0952
      6 H          -2.8374   -2.7640   -0.0008 H       1  LIG1        0.0693
      7 H           0.0503   -2.7682   -0.0004 H       1  LIG1        0.0623
      8 H           1.0969   -0.1143   -0.0009 H       1  LIG1        0.0629
      9 C          -1.0166    1.8536    0.0014 C.ar    1  LIG1        0.0536
     10 C           0.1223    2.5958    0.0016 C.ar    1  LIG1       -0.0352
     11 C          -0.2656    3.9743    0.0037 C.ar    1  LIG1       -0.0328
     12 C          -1.6244    4.0138    0.0030 C.ar    1  LIG1        0.0826
     13 N          -2.0883    2.7177    0.0020 N.ar    1  LIG1       -0.3514
     14 H          -3.0451    2.4484    0.0012 H       1  LIG1        0.1660
     15 H           1.3380    2.1353    0.0015 H       1  LIG1        0.0639
     16 H           0.5317    5.0011    0.0055 H       1  LIG1        0.0640
     17 C          -2.4388    5.0271    0.0041 C.ar    1  LIG1        0.1518
     18 C          -2.3008    6.3997    0.0049 C.ar    1  LIG1       -0.0138
     19 C          -3.6397    6.9512    0.0060 C.ar    1  LIG1       -0.0152
     20 C          -4.5075    5.8786    0.0056 C.ar    1  LIG1        0.1358
     21 O          -3.7909    4.6814    0.0044 O.2     1  LIG1       -0.4534
     22 H          -1.1983    7.0885    0.0049 H       1  LIG1        0.0656
     23 H          -3.9379    8.2166    0.0070 H       1  LIG1        0.0656
     24 C          -6.6348    6.8678    0.0073 C.ar    1  LIG1       -0.0511
     25 C          -8.0271    6.6560    0.0094 C.ar    1  LIG1       -0.0611
     26 C          -5.7992    5.7322    0.0062 C.ar    1  LIG1        0.0173
     27 C          -8.5658    5.3713    0.0099 C.ar    1  LIG1       -0.0617
     28 H          -8.6901    7.5183    0.0105 H       1  LIG1        0.0618
     29 C          -6.3364    4.4494    0.0066 C.ar    1  LIG1       -0.0511
     30 C          -7.7222    4.2597    0.0084 C.ar    1  LIG1       -0.0611
     31 H          -5.6711    3.5898    0.0059 H       1  LIG1        0.0625
     32 H          -9.8560    5.2124    0.0118 H       1  LIG1        0.0618
     33 H          -6.1918    8.0899    0.0067 H       1  LIG1        0.0625
     34 H          -8.2187    3.0582    0.0090 H       1  LIG1        0.0618
@<TRIPOS>BOND
     1     8     3    1
     2     6     1    1
     3     7     2    1
     4     2     3   ar
     5     2     1   ar
     6     3     4   ar
     7     1     5   ar
     8     4     5   ar
     9     4     9    1
    10    14    13    1
    11     9    10   ar
    12     9    13   ar
    13    15    10    1
    14    10    11   ar
    15    13    12   ar
    16    12    11   ar
    17    12    17    1
    18    11    16    1
    19    17    21   ar
    20    17    18   ar
    21    21    20   ar
    22    22    18    1
    23    18    19   ar
    24    20    19   ar
    25    20    26    1
    26    31    29    1
    27    19    23    1
    28    26    29   ar
    29    26    24   ar
    30    29    30   ar
    31    33    24    1
    32    24    25   ar
    33    30    34    1
    34    30    27   ar
    35    25    27   ar
    36    25    28    1
    37    27    32    1
