@<TRIPOS>MOLECULE
mol_data/noopt/geoms/mol2/51312.out
 24 26 0 0 0
SMALL
GASTEIGER

@<TRIPOS>ATOM
      1 C          -2.0792   -1.7080   -0.0002 C.ar    1  LIG1       -0.0237
      2 C          -0.7020   -1.7080   -0.0002 C.ar    1  LIG1       -0.0541
      3 C          -0.1766   -0.3757   -0.0002 C.ar    1  LIG1       -0.0455
      4 C          -1.1831    0.5643    0.0006 C.ar    1  LIG1        0.0355
      5 S          -2.6937   -0.1528    0.0006 S.2     1  LIG1       -0.0952
      6 H          -2.8374   -2.7640   -0.0008 H       1  LIG1        0.0693
      7 H           0.0503   -2.7682   -0.0004 H       1  LIG1        0.0623
      8 H           1.0969   -0.1143   -0.0009 H       1  LIG1        0.0629
      9 C          -1.0166    1.8536    0.0014 C.ar    1  LIG1        0.0536
     10 C           0.1223    2.5958    0.0016 C.ar    1  LIG1       -0.0352
     11 C          -0.2656    3.9743    0.0037 C.ar    1  LIG1       -0.0328
     12 C          -1.6244    4.0138    0.0030 C.ar    1  LIG1        0.0825
     13 N          -2.0883    2.7177    0.0020 N.ar    1  LIG1       -0.3514
     14 H          -3.0451    2.4484    0.0012 H       1  LIG1        0.1660
     15 H           1.3380    2.1353    0.0015 H       1  LIG1        0.0639
     16 H           0.5317    5.0011    0.0055 H       1  LIG1        0.0640
     17 C          -2.4388    5.0271    0.0041 C.ar    1  LIG1        0.1509
     18 C          -2.3008    6.3997    0.0049 C.ar    1  LIG1       -0.0144
     19 C          -3.6397    6.9512    0.0060 C.ar    1  LIG1       -0.0233
     20 C          -4.5075    5.8786    0.0056 C.ar    1  LIG1        0.0926
     21 O          -3.7909    4.6814    0.0044 O.2     1  LIG1       -0.4615
     22 H          -5.7992    5.7322    0.0062 H       1  LIG1        0.1029
     23 H          -1.1983    7.0885    0.0049 H       1  LIG1        0.0656
     24 H          -3.9379    8.2166    0.0070 H       1  LIG1        0.0649
@<TRIPOS>BOND
     1     8     3    1
     2     6     1    1
     3     7     2    1
     4     2     3   ar
     5     2     1   ar
     6     3     4   ar
     7     1     5   ar
     8     4     5   ar
     9     4     9    1
    10    14    13    1
    11     9    10   ar
    12     9    13   ar
    13    15    10    1
    14    10    11   ar
    15    13    12   ar
    16    12    11   ar
    17    12    17    1
    18    11    16    1
    19    17    21   ar
    20    17    18   ar
    21    21    20   ar
    22    23    18    1
    23    18    19   ar
    24    20    19   ar
    25    20    22    1
    26    19    24    1
