@<TRIPOS>MOLECULE
mol_data/noopt/geoms/mol2/5134-.out
 27 29 0 0 0
SMALL
GASTEIGER

@<TRIPOS>ATOM
      1 C          -2.0792   -1.7080   -0.0002 C.ar    1  LIG1       -0.0237
      2 C          -0.7020   -1.7080   -0.0002 C.ar    1  LIG1       -0.0541
      3 C          -0.1766   -0.3757   -0.0002 C.ar    1  LIG1       -0.0455
      4 C          -1.1831    0.5643    0.0006 C.ar    1  LIG1        0.0355
      5 S          -2.6937   -0.1528    0.0006 S.2     1  LIG1       -0.0952
      6 H          -2.8374   -2.7640   -0.0008 H       1  LIG1        0.0693
      7 H           0.0503   -2.7682   -0.0004 H       1  LIG1        0.0623
      8 H           1.0969   -0.1143   -0.0009 H       1  LIG1        0.0629
      9 C          -1.0166    1.8536    0.0014 C.ar    1  LIG1        0.0536
     10 C           0.1223    2.5958    0.0016 C.ar    1  LIG1       -0.0353
     11 C          -0.2656    3.9743    0.0037 C.ar    1  LIG1       -0.0358
     12 C          -1.6244    4.0138    0.0030 C.ar    1  LIG1        0.0469
     13 N          -2.0883    2.7177    0.0020 N.ar    1  LIG1       -0.3537
     14 H          -3.0451    2.4484    0.0012 H       1  LIG1        0.1659
     15 H           1.3380    2.1353    0.0015 H       1  LIG1        0.0639
     16 H           0.5317    5.0011    0.0055 H       1  LIG1        0.0639
     17 C          -3.8317    4.8088    0.0039 C.ar    1  LIG1       -0.0526
     18 C          -4.6715    5.9393    0.0036 C.ar    1  LIG1       -0.0611
     19 C          -2.4388    5.0271    0.0041 C.ar    1  LIG1       -0.0017
     20 C          -4.1497    7.2309    0.0040 C.ar    1  LIG1       -0.0617
     21 H          -5.7494    5.7935    0.0033 H       1  LIG1        0.0618
     22 C          -1.9174    6.3163    0.0045 C.ar    1  LIG1       -0.0526
     23 C          -2.7681    7.4266    0.0046 C.ar    1  LIG1       -0.0611
     24 H          -0.8397    6.4585    0.0045 H       1  LIG1        0.0624
     25 H          -4.9543    8.2521    0.0038 H       1  LIG1        0.0618
     26 H          -4.3774    3.6289    0.0038 H       1  LIG1        0.0624
     27 H          -2.2749    8.6295    0.0048 H       1  LIG1        0.0618
@<TRIPOS>BOND
     1     8     3    1
     2     6     1    1
     3     7     2    1
     4     2     3   ar
     5     2     1   ar
     6     3     4   ar
     7     1     5   ar
     8     4     5   ar
     9     4     9    1
    10    14    13    1
    11     9    10   ar
    12     9    13   ar
    13    15    10    1
    14    10    11   ar
    15    13    12   ar
    16    12    11   ar
    17    12    19    1
    18    21    18    1
    19    18    17   ar
    20    18    20   ar
    21    11    16    1
    22    26    17    1
    23    25    20    1
    24    17    19   ar
    25    20    23   ar
    26    19    22   ar
    27    22    24    1
    28    22    23   ar
    29    23    27    1
