@<TRIPOS>MOLECULE
mol_data/noopt/geoms/mol2/5134.out
 27 29 0 0 0
SMALL
GASTEIGER

@<TRIPOS>ATOM
      1 C          -2.0792   -1.7080   -0.0002 C.ar    1  LIG1       -0.0237
      2 C          -0.7020   -1.7080   -0.0002 C.ar    1  LIG1       -0.0541
      3 C          -0.1766   -0.3757   -0.0002 C.ar    1  LIG1       -0.0455
      4 C          -1.1831    0.5643    0.0006 C.ar    1  LIG1        0.0355
      5 S          -2.6937   -0.1528    0.0006 S.2     1  LIG1       -0.0952
      6 H          -2.8374   -2.7640   -0.0008 H       1  LIG1        0.0693
      7 H           0.0503   -2.7682   -0.0004 H       1  LIG1        0.0623
      8 H           1.0969   -0.1143   -0.0009 H       1  LIG1        0.0629
      9 C          -1.0166    1.8536    0.0014 C.ar    1  LIG1        0.0536
     10 C           0.1223    2.5958    0.0016 C.ar    1  LIG1       -0.0353
     11 C          -0.2656    3.9743    0.0037 C.ar    1  LIG1       -0.0358
     12 C          -1.6244    4.0138    0.0030 C.ar    1  LIG1        0.0469
     13 N          -2.0883    2.7177    0.0020 N.ar    1  LIG1       -0.3537
     14 H          -3.0451    2.4484    0.0012 H       1  LIG1        0.1659
     15 H           1.3380    2.1353    0.0015 H       1  LIG1        0.0639
     16 H           0.5317    5.0011    0.0055 H       1  LIG1        0.0639
     17 C          -1.9260    6.3404    0.0054 C.ar    1  LIG1       -0.0526
     18 C          -2.8494    7.4037    0.0081 C.ar    1  LIG1       -0.0611
     19 C          -2.4388    5.0271    0.0041 C.ar    1  LIG1       -0.0017
     20 C          -4.2231    7.1720    0.0088 C.ar    1  LIG1       -0.0617
     21 H          -2.4753    8.4251    0.0094 H       1  LIG1        0.0618
     22 C          -3.8100    4.7951    0.0048 C.ar    1  LIG1       -0.0526
     23 C          -4.7114    5.8648    0.0071 C.ar    1  LIG1       -0.0611
     24 H          -4.1807    3.7733    0.0038 H       1  LIG1        0.0624
     25 H          -5.0473    8.1773    0.0112 H       1  LIG1        0.0618
     26 H          -0.6563    6.6196    0.0046 H       1  LIG1        0.0624
     27 H          -5.9921    5.6418    0.0079 H       1  LIG1        0.0618
@<TRIPOS>BOND
     1     8     3    1
     2     6     1    1
     3     7     2    1
     4     2     3   ar
     5     2     1   ar
     6     3     4   ar
     7     1     5   ar
     8     4     5   ar
     9     4     9    1
    10    14    13    1
    11     9    10   ar
    12     9    13   ar
    13    15    10    1
    14    10    11   ar
    15    13    12   ar
    16    12    11   ar
    17    12    19    1
    18    11    16    1
    19    24    22    1
    20    19    22   ar
    21    19    17   ar
    22    26    17    1
    23    22    23   ar
    24    17    18   ar
    25    23    27    1
    26    23    20   ar
    27    18    20   ar
    28    18    21    1
    29    20    25    1
