@<TRIPOS>MOLECULE
mol_data/noopt/geoms/mol2/5135-4-.out
 34 37 0 0 0
SMALL
GASTEIGER

@<TRIPOS>ATOM
      1 C          -2.0792   -1.7080   -0.0002 C.ar    1  LIG1       -0.0237
      2 C          -0.7020   -1.7080   -0.0002 C.ar    1  LIG1       -0.0541
      3 C          -0.1766   -0.3757   -0.0002 C.ar    1  LIG1       -0.0455
      4 C          -1.1831    0.5643    0.0006 C.ar    1  LIG1        0.0355
      5 S          -2.6937   -0.1528    0.0006 S.2     1  LIG1       -0.0952
      6 H          -2.8374   -2.7640   -0.0008 H       1  LIG1        0.0693
      7 H           0.0503   -2.7682   -0.0004 H       1  LIG1        0.0623
      8 H           1.0969   -0.1143   -0.0009 H       1  LIG1        0.0629
      9 C          -1.0166    1.8536    0.0014 C.ar    1  LIG1        0.0536
     10 C           0.1223    2.5958    0.0016 C.ar    1  LIG1       -0.0353
     11 C          -0.2656    3.9743    0.0037 C.ar    1  LIG1       -0.0353
     12 C          -1.6244    4.0138    0.0030 C.ar    1  LIG1        0.0536
     13 N          -2.0883    2.7177    0.0020 N.ar    1  LIG1       -0.3533
     14 H          -3.0451    2.4484    0.0012 H       1  LIG1        0.1659
     15 H           1.3380    2.1353    0.0015 H       1  LIG1        0.0639
     16 H           0.5317    5.0011    0.0055 H       1  LIG1        0.0639
     17 C          -2.4388    5.0271    0.0041 C.ar    1  LIG1        0.0361
     18 C          -3.8140    4.9524    0.0049 C.ar    1  LIG1       -0.0449
     19 C          -4.4109    6.2542    0.0068 C.ar    1  LIG1       -0.0463
     20 C          -3.4569    7.2474    0.0065 C.ar    1  LIG1        0.0200
     21 S          -1.9096    6.6134    0.0048 S.2     1  LIG1       -0.0868
     22 H          -4.5076    3.8529    0.0043 H       1  LIG1        0.0630
     23 H          -5.6967    6.4460    0.0085 H       1  LIG1        0.0629
     24 C          -5.0229    8.9943    0.0070 C.ar    1  LIG1       -0.0535
     25 C          -5.2259   10.3879    0.0064 C.ar    1  LIG1       -0.0612
     26 C          -3.6932    8.5257    0.0073 C.ar    1  LIG1       -0.0113
     27 C          -4.1539   11.2774    0.0067 C.ar    1  LIG1       -0.0617
     28 H          -6.2440   10.7710    0.0060 H       1  LIG1        0.0618
     29 C          -2.6225    9.4133    0.0076 C.ar    1  LIG1       -0.0535
     30 C          -2.8447   10.7943    0.0074 C.ar    1  LIG1       -0.0612
     31 H          -1.6064    9.0273    0.0078 H       1  LIG1        0.0624
     32 H          -4.3777   12.5581    0.0062 H       1  LIG1        0.0618
     33 H          -6.0630    8.2145    0.0070 H       1  LIG1        0.0624
     34 H          -1.8400   11.6192    0.0075 H       1  LIG1        0.0618
@<TRIPOS>BOND
     1     8     3    1
     2     6     1    1
     3     7     2    1
     4     2     3   ar
     5     2     1   ar
     6     3     4   ar
     7     1     5   ar
     8     4     5   ar
     9     4     9    1
    10    14    13    1
    11     9    10   ar
    12     9    13   ar
    13    15    10    1
    14    10    11   ar
    15    13    12   ar
    16    12    11   ar
    17    12    17    1
    18    11    16    1
    19    17    21   ar
    20    17    18   ar
    21    22    18    1
    22    21    20   ar
    23    18    19   ar
    24    28    25    1
    25    32    27    1
    26    25    27   ar
    27    25    24   ar
    28    20    19   ar
    29    20    26    1
    30    27    30   ar
    31    19    23    1
    32    33    24    1
    33    24    26   ar
    34    26    29   ar
    35    30    34    1
    36    30    29   ar
    37    29    31    1
