@<TRIPOS>MOLECULE
mol_data/noopt/geoms/mol2/5138-5.out
 30 33 0 0 0
SMALL
GASTEIGER

@<TRIPOS>ATOM
      1 C          -2.0792   -1.7080   -0.0002 C.ar    1  LIG1       -0.0237
      2 C          -0.7020   -1.7080   -0.0002 C.ar    1  LIG1       -0.0541
      3 C          -0.1766   -0.3757   -0.0002 C.ar    1  LIG1       -0.0455
      4 C          -1.1831    0.5643    0.0006 C.ar    1  LIG1        0.0355
      5 S          -2.6937   -0.1528    0.0006 S.2     1  LIG1       -0.0952
      6 H          -2.8374   -2.7640   -0.0008 H       1  LIG1        0.0693
      7 H           0.0503   -2.7682   -0.0004 H       1  LIG1        0.0623
      8 H           1.0969   -0.1143   -0.0009 H       1  LIG1        0.0629
      9 C          -1.0166    1.8536    0.0014 C.ar    1  LIG1        0.0536
     10 C           0.1223    2.5958    0.0016 C.ar    1  LIG1       -0.0352
     11 C          -0.2656    3.9743    0.0037 C.ar    1  LIG1       -0.0326
     12 C          -1.6244    4.0138    0.0030 C.ar    1  LIG1        0.0880
     13 N          -2.0883    2.7177    0.0020 N.ar    1  LIG1       -0.3512
     14 H          -3.0451    2.4484    0.0012 H       1  LIG1        0.1660
     15 H           1.3380    2.1353    0.0015 H       1  LIG1        0.0639
     16 H           0.5317    5.0011    0.0055 H       1  LIG1        0.0640
     17 C          -2.4388    5.0271    0.0041 C.ar    1  LIG1        0.2194
     18 N          -3.7691    4.7390    0.0046 N.ar    1  LIG1       -0.1237
     19 C          -4.1275    7.1283    0.0063 C.ar    1  LIG1        0.2099
     20 N          -1.8713    6.2644    0.0046 N.ar    1  LIG1       -0.1237
     21 N          -4.6008    5.8018    0.0057 N.ar    1  LIG1       -0.1246
     22 N          -2.7304    7.3051    0.0058 N.ar    1  LIG1       -0.1246
     23 C          -4.9419    8.1416    0.0074 C.ar    1  LIG1        0.0598
     24 C          -4.5731    9.4685    0.0078 C.ar    1  LIG1       -0.0438
     25 C          -5.7161   10.3315    0.0083 C.ar    1  LIG1       -0.0540
     26 C          -6.8913    9.6134    0.0092 C.ar    1  LIG1       -0.0236
     27 S          -6.6048    7.9660    0.0086 S.2     1  LIG1       -0.0934
     28 H          -8.0889   10.1191    0.0104 H       1  LIG1        0.0693
     29 H          -3.3502    9.9094    0.0074 H       1  LIG1        0.0630
     30 H          -5.6269   11.6284    0.0080 H       1  LIG1        0.0623
@<TRIPOS>BOND
     1     8     3    1
     2     6     1    1
     3     7     2    1
     4     2     3   ar
     5     2     1   ar
     6     3     4   ar
     7     1     5   ar
     8     4     5   ar
     9     4     9    1
    10    14    13    1
    11     9    10   ar
    12     9    13   ar
    13    15    10    1
    14    10    11   ar
    15    13    12   ar
    16    12    11   ar
    17    12    17    1
    18    11    16    1
    19    17    20   ar
    20    17    18   ar
    21    20    22   ar
    22    18    21   ar
    23    21    19   ar
    24    22    19   ar
    25    19    23    1
    26    29    24    1
    27    23    24   ar
    28    23    27   ar
    29    24    25   ar
    30    30    25    1
    31    25    26   ar
    32    27    26   ar
    33    26    28    1
