@<TRIPOS>MOLECULE
mol_data/noopt/geoms/mol2/54-.out
 19 20 0 0 0
SMALL
GASTEIGER

@<TRIPOS>ATOM
      1 C          -2.0792   -1.7080   -0.0002 C.ar    1  LIG1       -0.0237
      2 C          -0.7020   -1.7080   -0.0002 C.ar    1  LIG1       -0.0541
      3 C          -0.1766   -0.3757   -0.0002 C.ar    1  LIG1       -0.0469
      4 C          -1.1831    0.5643    0.0006 C.ar    1  LIG1        0.0193
      5 S          -2.6937   -0.1528    0.0006 S.2     1  LIG1       -0.0967
      6 H          -2.8374   -2.7640   -0.0008 H       1  LIG1        0.0693
      7 H           0.0503   -2.7682   -0.0004 H       1  LIG1        0.0623
      8 H           1.0969   -0.1143   -0.0009 H       1  LIG1        0.0629
      9 C          -2.1390    2.7068    0.0011 C.ar    1  LIG1       -0.0535
     10 C          -1.9056    4.0956    0.0004 C.ar    1  LIG1       -0.0612
     11 C          -1.0166    1.8535    0.0014 C.ar    1  LIG1       -0.0113
     12 C          -0.6127    4.6142    0.0007 C.ar    1  LIG1       -0.0617
     13 H          -2.7575    4.7719   -0.0000 H       1  LIG1        0.0618
     14 C           0.2744    2.3707    0.0017 C.ar    1  LIG1       -0.0535
     15 C           0.4857    3.7534    0.0014 C.ar    1  LIG1       -0.0612
     16 H           1.1235    1.6921    0.0018 H       1  LIG1        0.0624
     17 H          -0.4336    5.9018    0.0002 H       1  LIG1        0.0618
     18 H          -3.3680    2.2829    0.0011 H       1  LIG1        0.0624
     19 H           1.6947    4.2311    0.0015 H       1  LIG1        0.0618
@<TRIPOS>BOND
     1     8     3    1
     2     6     1    1
     3     7     2    1
     4     2     3   ar
     5     2     1   ar
     6     3     4   ar
     7     1     5   ar
     8    13    10    1
     9    17    12    1
    10    10    12   ar
    11    10     9   ar
    12     5     4   ar
    13     4    11    1
    14    12    15   ar
    15    18     9    1
    16     9    11   ar
    17    11    14   ar
    18    15    19    1
    19    15    14   ar
    20    14    16    1
