@<TRIPOS>MOLECULE
mol_data/noopt/geoms/mol2/54-13.out
 27 29 0 0 0
SMALL
GASTEIGER

@<TRIPOS>ATOM
      1 C          -2.0792   -1.7080   -0.0002 C.ar    1  LIG1       -0.0237
      2 C          -0.7020   -1.7080   -0.0002 C.ar    1  LIG1       -0.0541
      3 C          -0.1766   -0.3757   -0.0002 C.ar    1  LIG1       -0.0469
      4 C          -1.1831    0.5643    0.0006 C.ar    1  LIG1        0.0193
      5 S          -2.6937   -0.1528    0.0006 S.2     1  LIG1       -0.0967
      6 H          -2.8374   -2.7640   -0.0008 H       1  LIG1        0.0693
      7 H           0.0503   -2.7682   -0.0004 H       1  LIG1        0.0623
      8 H           1.0969   -0.1143   -0.0009 H       1  LIG1        0.0629
      9 C          -2.1390    2.7068    0.0011 C.ar    1  LIG1       -0.0529
     10 C          -1.9056    4.0956    0.0004 C.ar    1  LIG1       -0.0520
     11 C          -1.0166    1.8535    0.0014 C.ar    1  LIG1       -0.0113
     12 C          -0.6127    4.6142    0.0007 C.ar    1  LIG1       -0.0017
     13 H          -2.7575    4.7719   -0.0000 H       1  LIG1        0.0624
     14 C           0.2744    2.3707    0.0017 C.ar    1  LIG1       -0.0529
     15 C           0.4857    3.7534    0.0014 C.ar    1  LIG1       -0.0520
     16 H           1.1235    1.6921    0.0018 H       1  LIG1        0.0624
     17 H          -3.3680    2.2829    0.0011 H       1  LIG1        0.0624
     18 H           1.6947    4.2311    0.0015 H       1  LIG1        0.0624
     19 C          -0.4337    5.9018    0.0002 C.ar    1  LIG1        0.0465
     20 C           0.7124    6.6329   -0.0005 C.ar    1  LIG1       -0.0364
     21 C           0.3379    8.0151    0.0003 C.ar    1  LIG1       -0.0438
     22 C          -1.0205    8.0678   -0.0003 C.ar    1  LIG1        0.0022
     23 N          -1.4969    6.7762    0.0001 N.ar    1  LIG1       -0.3607
     24 H          -2.4563    6.5163   -0.0003 H       1  LIG1        0.1653
     25 H          -1.8250    9.0889   -0.0001 H       1  LIG1        0.0807
     26 H           1.9236    6.1607   -0.0003 H       1  LIG1        0.0639
     27 H           1.1451    9.0342    0.0010 H       1  LIG1        0.0633
@<TRIPOS>BOND
     1     8     3    1
     2     6     1    1
     3    20    26    1
     4    20    19   ar
     5    20    21   ar
     6     7     2    1
     7    22    25    1
     8    22    23   ar
     9    22    21   ar
    10    24    23    1
    11     1     2   ar
    12     1     5   ar
    13     3     2   ar
    14     3     4   ar
    15    13    10    1
    16    23    19   ar
    17    19    12    1
    18    21    27    1
    19    10    12   ar
    20    10     9   ar
    21     5     4   ar
    22     4    11    1
    23    12    15   ar
    24    17     9    1
    25     9    11   ar
    26    11    14   ar
    27    15    18    1
    28    15    14   ar
    29    14    16    1
