@<TRIPOS>MOLECULE
mol_data/noopt/geoms/mol2/54-13-8-.out
 33 36 0 0 0
SMALL
GASTEIGER

@<TRIPOS>ATOM
      1 C          -2.0792   -1.7080   -0.0002 C.ar    1  LIG1       -0.0237
      2 C          -0.7020   -1.7080   -0.0002 C.ar    1  LIG1       -0.0541
      3 C          -0.1766   -0.3757   -0.0002 C.ar    1  LIG1       -0.0469
      4 C          -1.1831    0.5643    0.0006 C.ar    1  LIG1        0.0193
      5 S          -2.6937   -0.1528    0.0006 S.2     1  LIG1       -0.0967
      6 H          -2.8374   -2.7640   -0.0008 H       1  LIG1        0.0693
      7 H           0.0503   -2.7682   -0.0004 H       1  LIG1        0.0623
      8 H           1.0969   -0.1143   -0.0009 H       1  LIG1        0.0629
      9 C          -2.1390    2.7068    0.0011 C.ar    1  LIG1       -0.0529
     10 C          -1.9056    4.0956    0.0004 C.ar    1  LIG1       -0.0520
     11 C          -1.0166    1.8535    0.0014 C.ar    1  LIG1       -0.0113
     12 C          -0.6127    4.6142    0.0007 C.ar    1  LIG1       -0.0017
     13 H          -2.7575    4.7719   -0.0000 H       1  LIG1        0.0624
     14 C           0.2744    2.3707    0.0017 C.ar    1  LIG1       -0.0529
     15 C           0.4857    3.7534    0.0014 C.ar    1  LIG1       -0.0520
     16 H           1.1235    1.6921    0.0018 H       1  LIG1        0.0624
     17 H          -3.3680    2.2829    0.0011 H       1  LIG1        0.0624
     18 H           1.6947    4.2311    0.0015 H       1  LIG1        0.0624
     19 C          -0.4337    5.9018    0.0002 C.ar    1  LIG1        0.0470
     20 C          -1.3368    6.9178    0.0004 C.ar    1  LIG1       -0.0357
     21 C          -0.5996    8.1454   -0.0015 C.ar    1  LIG1       -0.0326
     22 C           0.7217    7.8256   -0.0010 C.ar    1  LIG1        0.0879
     23 N           0.8278    6.4530   -0.0004 N.ar    1  LIG1       -0.3516
     24 H           1.6799    5.9413    0.0002 H       1  LIG1        0.1660
     25 H          -2.6309    6.7938    0.0006 H       1  LIG1        0.0639
     26 H          -1.0981    9.3460   -0.0030 H       1  LIG1        0.0640
     27 C           1.7743    8.5886   -0.0020 C.ar    1  LIG1        0.2193
     28 N           1.5528    9.9316   -0.0025 N.ar    1  LIG1       -0.1243
     29 C           3.9569   10.1706   -0.0041 C.ar    1  LIG1        0.1605
     30 N           2.9817    7.9602   -0.0025 N.ar    1  LIG1       -0.1243
     31 N           2.6556   10.7093   -0.0036 N.ar    1  LIG1       -0.1338
     32 N           4.0640    8.7664   -0.0035 N.ar    1  LIG1       -0.1338
     33 H           5.0095   10.9336   -0.0051 H       1  LIG1        0.1085
@<TRIPOS>BOND
     1    33    29    1
     2    29    31   ar
     3    29    32   ar
     4    31    28   ar
     5    32    30   ar
     6    26    21    1
     7    30    27   ar
     8    28    27   ar
     9    27    22    1
    10    21    22   ar
    11    21    20   ar
    12    22    23   ar
    13     8     3    1
    14     6     1    1
    15    23    24    1
    16    23    19   ar
    17     7     2    1
    18     1     2   ar
    19     1     5   ar
    20     2     3   ar
    21     3     4   ar
    22    13    10    1
    23    19    20   ar
    24    19    12    1
    25    20    25    1
    26    10    12   ar
    27    10     9   ar
    28     5     4   ar
    29     4    11    1
    30    12    15   ar
    31    17     9    1
    32     9    11   ar
    33    11    14   ar
    34    15    18    1
    35    15    14   ar
    36    14    16    1
