@<TRIPOS>MOLECULE
mol_data/noopt/geoms/mol2/54-1312-.out
 34 37 0 0 0
SMALL
GASTEIGER

@<TRIPOS>ATOM
      1 C          -2.0792   -1.7080   -0.0002 C.ar    1  LIG1       -0.0237
      2 C          -0.7020   -1.7080   -0.0002 C.ar    1  LIG1       -0.0541
      3 C          -0.1766   -0.3757   -0.0002 C.ar    1  LIG1       -0.0469
      4 C          -1.1831    0.5643    0.0006 C.ar    1  LIG1        0.0193
      5 S          -2.6937   -0.1528    0.0006 S.2     1  LIG1       -0.0967
      6 H          -2.8374   -2.7640   -0.0008 H       1  LIG1        0.0693
      7 H           0.0503   -2.7682   -0.0004 H       1  LIG1        0.0623
      8 H           1.0969   -0.1143   -0.0009 H       1  LIG1        0.0629
      9 C          -2.1390    2.7068    0.0011 C.ar    1  LIG1       -0.0529
     10 C          -1.9056    4.0956    0.0004 C.ar    1  LIG1       -0.0520
     11 C          -1.0166    1.8535    0.0014 C.ar    1  LIG1       -0.0113
     12 C          -0.6127    4.6142    0.0007 C.ar    1  LIG1       -0.0017
     13 H          -2.7575    4.7719   -0.0000 H       1  LIG1        0.0624
     14 C           0.2744    2.3707    0.0017 C.ar    1  LIG1       -0.0529
     15 C           0.4857    3.7534    0.0014 C.ar    1  LIG1       -0.0520
     16 H           1.1235    1.6921    0.0018 H       1  LIG1        0.0624
     17 H          -3.3680    2.2829    0.0011 H       1  LIG1        0.0624
     18 H           1.6947    4.2311    0.0015 H       1  LIG1        0.0624
     19 C          -0.4337    5.9018    0.0002 C.ar    1  LIG1        0.0470
     20 C           0.7124    6.6329   -0.0005 C.ar    1  LIG1       -0.0357
     21 C           0.3379    8.0151    0.0003 C.ar    1  LIG1       -0.0328
     22 C          -1.0205    8.0678   -0.0003 C.ar    1  LIG1        0.0825
     23 N          -1.4969    6.7762    0.0001 N.ar    1  LIG1       -0.3518
     24 H          -2.4563    6.5163   -0.0003 H       1  LIG1        0.1660
     25 H           1.9236    6.1607   -0.0003 H       1  LIG1        0.0639
     26 H           1.1451    9.0342    0.0010 H       1  LIG1        0.0640
     27 C          -1.8250    9.0889   -0.0001 C.ar    1  LIG1        0.1509
     28 C          -3.1935    9.2626    0.0001 C.ar    1  LIG1       -0.0144
     29 C          -3.4303   10.6912    0.0003 C.ar    1  LIG1       -0.0233
     30 C          -2.1902   11.2960    0.0003 C.ar    1  LIG1        0.0926
     31 O          -1.1845   10.3289    0.0002 O.2     1  LIG1       -0.4615
     32 H          -1.7575   12.5219    0.0004 H       1  LIG1        0.1029
     33 H          -4.1123    8.3429   -0.0000 H       1  LIG1        0.0656
     34 H          -4.5964   11.2659    0.0005 H       1  LIG1        0.0649
@<TRIPOS>BOND
     1     8     3    1
     2     6     1    1
     3    20    25    1
     4    20    19   ar
     5    20    21   ar
     6     7     2    1
     7    22    27    1
     8    22    23   ar
     9    22    21   ar
    10    24    23    1
    11     2     3   ar
    12     2     1   ar
    13     3     4   ar
    14     1     5   ar
    15    27    28   ar
    16    27    31   ar
    17    13    10    1
    18    33    28    1
    19    28    29   ar
    20    23    19   ar
    21    31    30   ar
    22    19    12    1
    23    29    30   ar
    24    29    34    1
    25    30    32    1
    26    21    26    1
    27    10    12   ar
    28    10     9   ar
    29     5     4   ar
    30     4    11    1
    31    12    15   ar
    32    17     9    1
    33     9    11   ar
    34    11    14   ar
    35    15    18    1
    36    15    14   ar
    37    14    16    1
