@<TRIPOS>MOLECULE
mol_data/noopt/geoms/mol2/54-4-12.out
 36 39 0 0 0
SMALL
GASTEIGER

@<TRIPOS>ATOM
      1 C          -2.0792   -1.7080   -0.0002 C.ar    1  LIG1       -0.0237
      2 C          -0.7020   -1.7080   -0.0002 C.ar    1  LIG1       -0.0541
      3 C          -0.1766   -0.3757   -0.0002 C.ar    1  LIG1       -0.0469
      4 C          -1.1831    0.5643    0.0006 C.ar    1  LIG1        0.0193
      5 S          -2.6937   -0.1528    0.0006 S.2     1  LIG1       -0.0967
      6 H          -2.8374   -2.7640   -0.0008 H       1  LIG1        0.0693
      7 H           0.0503   -2.7682   -0.0004 H       1  LIG1        0.0623
      8 H           1.0969   -0.1143   -0.0009 H       1  LIG1        0.0629
      9 C          -2.1390    2.7068    0.0011 C.ar    1  LIG1       -0.0530
     10 C          -1.9056    4.0956    0.0004 C.ar    1  LIG1       -0.0534
     11 C          -1.0166    1.8535    0.0014 C.ar    1  LIG1       -0.0113
     12 C          -0.6127    4.6142    0.0007 C.ar    1  LIG1       -0.0178
     13 H          -2.7575    4.7719   -0.0000 H       1  LIG1        0.0624
     14 C           0.2744    2.3707    0.0017 C.ar    1  LIG1       -0.0530
     15 C           0.4857    3.7534    0.0014 C.ar    1  LIG1       -0.0534
     16 H           1.1235    1.6921    0.0018 H       1  LIG1        0.0624
     17 H          -3.3680    2.2829    0.0011 H       1  LIG1        0.0624
     18 H           1.6947    4.2311    0.0015 H       1  LIG1        0.0624
     19 C          -1.5477    6.7658   -0.0008 C.ar    1  LIG1       -0.0534
     20 C          -1.3009    8.1523   -0.0029 C.ar    1  LIG1       -0.0505
     21 C          -0.4337    5.9017    0.0002 C.ar    1  LIG1       -0.0178
     22 C          -0.0029    8.6583   -0.0033 C.ar    1  LIG1        0.0173
     23 H          -2.1461    8.8369   -0.0039 H       1  LIG1        0.0625
     24 C           0.8623    6.4064   -0.0002 C.ar    1  LIG1       -0.0534
     25 C           1.0870    7.7869   -0.0018 C.ar    1  LIG1       -0.0505
     26 H           1.7048    5.7195    0.0005 H       1  LIG1        0.0624
     27 H          -2.7807    6.3538   -0.0003 H       1  LIG1        0.0624
     28 H           2.3006    8.2529   -0.0024 H       1  LIG1        0.0625
     29 C           0.1885    9.9441   -0.0051 C.ar    1  LIG1        0.1348
     30 C           1.2903   10.7743   -0.0064 C.ar    1  LIG1       -0.0159
     31 C           0.7867   12.1320   -0.0082 C.ar    1  LIG1       -0.0233
     32 C          -0.5901   12.0413   -0.0079 C.ar    1  LIG1        0.0926
     33 O          -0.9830   10.7025   -0.0061 O.2     1  LIG1       -0.4629
     34 H          -1.5743   12.8907   -0.0088 H       1  LIG1        0.1029
     35 H           2.5444   10.4320   -0.0061 H       1  LIG1        0.0655
     36 H           1.5136   13.2097   -0.0098 H       1  LIG1        0.0649
@<TRIPOS>BOND
     1    36    31    1
     2    34    32    1
     3    31    32   ar
     4    31    30   ar
     5    32    33   ar
     6    30    35    1
     7    30    29   ar
     8    33    29   ar
     9    29    22    1
    10    23    20    1
    11    22    20   ar
    12    22    25   ar
    13    20    19   ar
    14    28    25    1
    15    25    24   ar
    16     8     3    1
    17    19    27    1
    18    19    21   ar
    19     6     1    1
    20     7     2    1
    21     2     3   ar
    22     2     1   ar
    23     3     4   ar
    24     1     5   ar
    25    24    21   ar
    26    24    26    1
    27    13    10    1
    28    21    12    1
    29    10    12   ar
    30    10     9   ar
    31     5     4   ar
    32     4    11    1
    33    12    15   ar
    34    17     9    1
    35     9    11   ar
    36    11    14   ar
    37    15    18    1
    38    15    14   ar
    39    14    16    1
