@<TRIPOS>MOLECULE
mol_data/noopt/geoms/mol2/54-4.out
 29 31 0 0 0
SMALL
GASTEIGER

@<TRIPOS>ATOM
      1 C          -2.0792   -1.7080   -0.0002 C.ar    1  LIG1       -0.0237
      2 C          -0.7020   -1.7080   -0.0002 C.ar    1  LIG1       -0.0541
      3 C          -0.1766   -0.3757   -0.0002 C.ar    1  LIG1       -0.0469
      4 C          -1.1831    0.5643    0.0006 C.ar    1  LIG1        0.0193
      5 S          -2.6937   -0.1528    0.0006 S.2     1  LIG1       -0.0967
      6 H          -2.8374   -2.7640   -0.0008 H       1  LIG1        0.0693
      7 H           0.0503   -2.7682   -0.0004 H       1  LIG1        0.0623
      8 H           1.0969   -0.1143   -0.0009 H       1  LIG1        0.0629
      9 C          -2.1390    2.7068    0.0011 C.ar    1  LIG1       -0.0530
     10 C          -1.9056    4.0956    0.0004 C.ar    1  LIG1       -0.0534
     11 C          -1.0166    1.8535    0.0014 C.ar    1  LIG1       -0.0113
     12 C          -0.6127    4.6142    0.0007 C.ar    1  LIG1       -0.0178
     13 H          -2.7575    4.7719   -0.0000 H       1  LIG1        0.0624
     14 C           0.2744    2.3707    0.0017 C.ar    1  LIG1       -0.0530
     15 C           0.4857    3.7534    0.0014 C.ar    1  LIG1       -0.0534
     16 H           1.1235    1.6921    0.0018 H       1  LIG1        0.0624
     17 H          -3.3680    2.2829    0.0011 H       1  LIG1        0.0624
     18 H           1.6947    4.2311    0.0015 H       1  LIG1        0.0624
     19 C           0.8739    6.4292    0.0007 C.ar    1  LIG1       -0.0540
     20 C           1.0145    7.8304    0.0017 C.ar    1  LIG1       -0.0612
     21 C          -0.4337    5.9017    0.0002 C.ar    1  LIG1       -0.0179
     22 C          -0.0962    8.6713    0.0015 C.ar    1  LIG1       -0.0617
     23 H           2.0145    8.2585    0.0023 H       1  LIG1        0.0618
     24 C          -1.5428    6.7407    0.0001 C.ar    1  LIG1       -0.0540
     25 C          -1.3824    8.1302    0.0006 C.ar    1  LIG1       -0.0612
     26 H          -2.5407    6.3097   -0.0002 H       1  LIG1        0.0624
     27 H           0.0703    9.9606    0.0023 H       1  LIG1        0.0618
     28 H           1.9477    5.6965    0.0006 H       1  LIG1        0.0624
     29 H          -2.4230    8.9095    0.0007 H       1  LIG1        0.0618
@<TRIPOS>BOND
     1     8     3    1
     2     6     1    1
     3     7     2    1
     4    26    24    1
     5     2     3   ar
     6     2     1   ar
     7     3     4   ar
     8     1     5   ar
     9    13    10    1
    10    24    21   ar
    11    24    25   ar
    12    21    19   ar
    13    21    12    1
    14    10    12   ar
    15    10     9   ar
    16    28    19    1
    17     4     5   ar
    18     4    11    1
    19    25    29    1
    20    25    22   ar
    21    19    20   ar
    22    12    15   ar
    23    17     9    1
    24     9    11   ar
    25    11    14   ar
    26    15    18    1
    27    15    14   ar
    28    22    20   ar
    29    22    27    1
    30    20    23    1
    31    14    16    1
