@<TRIPOS>MOLECULE
mol_data/noopt/geoms/mol2/54-55-.out
 33 36 0 0 0
SMALL
GASTEIGER

@<TRIPOS>ATOM
      1 C          -2.0792   -1.7080   -0.0002 C.ar    1  LIG1       -0.0237
      2 C          -0.7020   -1.7080   -0.0002 C.ar    1  LIG1       -0.0541
      3 C          -0.1766   -0.3757   -0.0002 C.ar    1  LIG1       -0.0469
      4 C          -1.1831    0.5643    0.0006 C.ar    1  LIG1        0.0193
      5 S          -2.6937   -0.1528    0.0006 S.2     1  LIG1       -0.0967
      6 H          -2.8374   -2.7640   -0.0008 H       1  LIG1        0.0693
      7 H           0.0503   -2.7682   -0.0004 H       1  LIG1        0.0623
      8 H           1.0969   -0.1143   -0.0009 H       1  LIG1        0.0629
      9 C          -2.1390    2.7068    0.0011 C.ar    1  LIG1       -0.0529
     10 C          -1.9056    4.0956    0.0004 C.ar    1  LIG1       -0.0529
     11 C          -1.0166    1.8535    0.0014 C.ar    1  LIG1       -0.0113
     12 C          -0.6127    4.6142    0.0007 C.ar    1  LIG1       -0.0113
     13 H          -2.7575    4.7719   -0.0000 H       1  LIG1        0.0624
     14 C           0.2744    2.3707    0.0017 C.ar    1  LIG1       -0.0529
     15 C           0.4857    3.7534    0.0014 C.ar    1  LIG1       -0.0529
     16 H           1.1235    1.6921    0.0018 H       1  LIG1        0.0624
     17 H          -3.3680    2.2829    0.0011 H       1  LIG1        0.0624
     18 H           1.6947    4.2311    0.0015 H       1  LIG1        0.0624
     19 C          -0.4337    5.9018    0.0002 C.ar    1  LIG1        0.0199
     20 C           0.7850    6.5433   -0.0005 C.ar    1  LIG1       -0.0463
     21 C           0.6293    7.9670   -0.0016 C.ar    1  LIG1       -0.0458
     22 C          -0.6992    8.3299   -0.0010 C.ar    1  LIG1        0.0265
     23 S          -1.7019    6.9917    0.0002 S.2     1  LIG1       -0.0877
     24 H           1.9446    5.9556   -0.0003 H       1  LIG1        0.0629
     25 H           1.6344    8.7915   -0.0032 H       1  LIG1        0.0629
     26 C          -1.1525    9.5483   -0.0012 C.ar    1  LIG1        0.0259
     27 C          -2.4810    9.9111   -0.0011 C.ar    1  LIG1       -0.0464
     28 C          -2.6369   11.3348   -0.0006 C.ar    1  LIG1       -0.0541
     29 C          -1.4184   11.9764   -0.0010 C.ar    1  LIG1       -0.0237
     30 S          -0.1500   10.8867   -0.0014 S.2     1  LIG1       -0.0961
     31 H          -1.2394   13.2641   -0.0013 H       1  LIG1        0.0693
     32 H          -3.4860    9.0865   -0.0013 H       1  LIG1        0.0629
     33 H          -3.7966   11.9224    0.0002 H       1  LIG1        0.0623
@<TRIPOS>BOND
     1    25    21    1
     2    21    22   ar
     3    21    20   ar
     4    30    26   ar
     5    30    29   ar
     6    32    27    1
     7    31    29    1
     8    26    27   ar
     9    26    22    1
    10    27    28   ar
    11    29    28   ar
    12    22    23   ar
    13     8     3    1
    14     6     1    1
    15    28    33    1
    16    20    24    1
    17    20    19   ar
    18     7     2    1
    19     1     2   ar
    20     1     5   ar
    21     3     2   ar
    22     3     4   ar
    23    13    10    1
    24    19    23   ar
    25    19    12    1
    26    10    12   ar
    27    10     9   ar
    28     5     4   ar
    29     4    11    1
    30    12    15   ar
    31    17     9    1
    32     9    11   ar
    33    11    14   ar
    34    15    18    1
    35    15    14   ar
    36    14    16    1
