@<TRIPOS>MOLECULE
mol_data/noopt/geoms/mol2/54-5-13.out
 34 37 0 0 0
SMALL
GASTEIGER

@<TRIPOS>ATOM
      1 C          -2.0792   -1.7080   -0.0002 C.ar    1  LIG1       -0.0237
      2 C          -0.7020   -1.7080   -0.0002 C.ar    1  LIG1       -0.0541
      3 C          -0.1766   -0.3757   -0.0002 C.ar    1  LIG1       -0.0469
      4 C          -1.1831    0.5643    0.0006 C.ar    1  LIG1        0.0193
      5 S          -2.6937   -0.1528    0.0006 S.2     1  LIG1       -0.0967
      6 H          -2.8374   -2.7640   -0.0008 H       1  LIG1        0.0693
      7 H           0.0503   -2.7682   -0.0004 H       1  LIG1        0.0623
      8 H           1.0969   -0.1143   -0.0009 H       1  LIG1        0.0629
      9 C          -2.1390    2.7068    0.0011 C.ar    1  LIG1       -0.0529
     10 C          -1.9056    4.0956    0.0004 C.ar    1  LIG1       -0.0529
     11 C          -1.0166    1.8535    0.0014 C.ar    1  LIG1       -0.0113
     12 C          -0.6127    4.6142    0.0007 C.ar    1  LIG1       -0.0113
     13 H          -2.7575    4.7719   -0.0000 H       1  LIG1        0.0624
     14 C           0.2744    2.3707    0.0017 C.ar    1  LIG1       -0.0529
     15 C           0.4857    3.7534    0.0014 C.ar    1  LIG1       -0.0529
     16 H           1.1235    1.6921    0.0018 H       1  LIG1        0.0624
     17 H          -3.3680    2.2829    0.0011 H       1  LIG1        0.0624
     18 H           1.6947    4.2311    0.0015 H       1  LIG1        0.0624
     19 C          -0.4337    5.9018    0.0002 C.ar    1  LIG1        0.0200
     20 C          -1.4311    6.8514    0.0000 C.ar    1  LIG1       -0.0463
     21 C          -0.8930    8.1786    0.0002 C.ar    1  LIG1       -0.0449
     22 C           0.4841    8.1654   -0.0003 C.ar    1  LIG1        0.0360
     23 S           1.0838    6.6045   -0.0002 S.2     1  LIG1       -0.0868
     24 H          -2.7070    6.6023   -0.0001 H       1  LIG1        0.0629
     25 H          -1.6351    9.2460    0.0008 H       1  LIG1        0.0630
     26 C           1.2525    9.2140   -0.0009 C.ar    1  LIG1        0.0531
     27 C           2.6083    9.3140   -0.0016 C.ar    1  LIG1       -0.0359
     28 C           2.9343   10.7083   -0.0009 C.ar    1  LIG1       -0.0438
     29 C           1.7635   11.3992   -0.0015 C.ar    1  LIG1        0.0022
     30 N           0.7314   10.4882   -0.0010 N.ar    1  LIG1       -0.3603
     31 H          -0.2365   10.7145   -0.0014 H       1  LIG1        0.1653
     32 H           1.5397   12.6798   -0.0013 H       1  LIG1        0.0807
     33 H           3.4505    8.3237   -0.0014 H       1  LIG1        0.0639
     34 H           4.1283   11.2226   -0.0003 H       1  LIG1        0.0633
@<TRIPOS>BOND
     1    27    33    1
     2    27    28   ar
     3    27    26   ar
     4    29    32    1
     5    29    30   ar
     6    29    28   ar
     7    31    30    1
     8    30    26   ar
     9     8     3    1
    10    28    34    1
    11    26    22    1
    12     6     1    1
    13     7     2    1
    14    22    23   ar
    15    22    21   ar
    16    23    19   ar
    17     1     2   ar
    18     1     5   ar
    19     2     3   ar
    20     3     4   ar
    21    24    20    1
    22    13    10    1
    23    20    19   ar
    24    20    21   ar
    25    19    12    1
    26    21    25    1
    27    10    12   ar
    28    10     9   ar
    29     4     5   ar
    30     4    11    1
    31    12    15   ar
    32    17     9    1
    33     9    11   ar
    34    11    14   ar
    35    15    18    1
    36    15    14   ar
    37    14    16    1
