@<TRIPOS>MOLECULE
mol_data/noopt/geoms/mol2/54-8-.out
 25 27 0 0 0
SMALL
GASTEIGER

@<TRIPOS>ATOM
      1 C          -2.0792   -1.7080   -0.0002 C.ar    1  LIG1       -0.0237
      2 C          -0.7020   -1.7080   -0.0002 C.ar    1  LIG1       -0.0541
      3 C          -0.1766   -0.3757   -0.0002 C.ar    1  LIG1       -0.0469
      4 C          -1.1831    0.5643    0.0006 C.ar    1  LIG1        0.0193
      5 S          -2.6937   -0.1528    0.0006 S.2     1  LIG1       -0.0967
      6 H          -2.8374   -2.7640   -0.0008 H       1  LIG1        0.0693
      7 H           0.0503   -2.7682   -0.0004 H       1  LIG1        0.0623
      8 H           1.0969   -0.1143   -0.0009 H       1  LIG1        0.0629
      9 C          -2.1390    2.7068    0.0011 C.ar    1  LIG1       -0.0529
     10 C          -1.9056    4.0956    0.0004 C.ar    1  LIG1       -0.0503
     11 C          -1.0166    1.8535    0.0014 C.ar    1  LIG1       -0.0113
     12 C          -0.6127    4.6142    0.0007 C.ar    1  LIG1        0.0227
     13 H          -2.7575    4.7719   -0.0000 H       1  LIG1        0.0625
     14 C           0.2744    2.3707    0.0017 C.ar    1  LIG1       -0.0529
     15 C           0.4857    3.7534    0.0014 C.ar    1  LIG1       -0.0503
     16 H           1.1235    1.6921    0.0018 H       1  LIG1        0.0624
     17 H          -3.3680    2.2829    0.0011 H       1  LIG1        0.0624
     18 H           1.6947    4.2311    0.0015 H       1  LIG1        0.0625
     19 C          -0.4337    5.9018    0.0002 C.ar    1  LIG1        0.2033
     20 N          -1.5556    6.6724   -0.0000 N.ar    1  LIG1       -0.1258
     21 C          -0.0624    8.5718   -0.0008 C.ar    1  LIG1        0.1605
     22 N           0.8560    6.3372   -0.0000 N.ar    1  LIG1       -0.1258
     23 N          -1.3524    8.0065   -0.0005 N.ar    1  LIG1       -0.1339
     24 N           1.0244    7.6762   -0.0004 N.ar    1  LIG1       -0.1339
     25 H           0.1166    9.8594   -0.0013 H       1  LIG1        0.1085
@<TRIPOS>BOND
     1    25    21    1
     2     8     3    1
     3    21    23   ar
     4    21    24   ar
     5     6     1    1
     6    23    20   ar
     7    24    22   ar
     8     7     2    1
     9     1     2   ar
    10     1     5   ar
    11     2     3   ar
    12     3     4   ar
    13    22    19   ar
    14    20    19   ar
    15    13    10    1
    16    19    12    1
    17    10    12   ar
    18    10     9   ar
    19     4     5   ar
    20     4    11    1
    21    12    15   ar
    22    17     9    1
    23     9    11   ar
    24    11    14   ar
    25    15    18    1
    26    15    14   ar
    27    14    16    1
