@<TRIPOS>MOLECULE
mol_data/noopt/geoms/mol2/54-8-4-.out
 35 38 0 0 0
SMALL
GASTEIGER

@<TRIPOS>ATOM
      1 C          -2.0792   -1.7080   -0.0002 C.ar    1  LIG1       -0.0237
      2 C          -0.7020   -1.7080   -0.0002 C.ar    1  LIG1       -0.0541
      3 C          -0.1766   -0.3757   -0.0002 C.ar    1  LIG1       -0.0469
      4 C          -1.1831    0.5643    0.0006 C.ar    1  LIG1        0.0193
      5 S          -2.6937   -0.1528    0.0006 S.2     1  LIG1       -0.0967
      6 H          -2.8374   -2.7640   -0.0008 H       1  LIG1        0.0693
      7 H           0.0503   -2.7682   -0.0004 H       1  LIG1        0.0623
      8 H           1.0969   -0.1143   -0.0009 H       1  LIG1        0.0629
      9 C          -2.1390    2.7068    0.0011 C.ar    1  LIG1       -0.0529
     10 C          -1.9056    4.0956    0.0004 C.ar    1  LIG1       -0.0503
     11 C          -1.0166    1.8535    0.0014 C.ar    1  LIG1       -0.0113
     12 C          -0.6127    4.6142    0.0007 C.ar    1  LIG1        0.0227
     13 H          -2.7575    4.7719   -0.0000 H       1  LIG1        0.0625
     14 C           0.2744    2.3707    0.0017 C.ar    1  LIG1       -0.0529
     15 C           0.4857    3.7534    0.0014 C.ar    1  LIG1       -0.0503
     16 H           1.1235    1.6921    0.0018 H       1  LIG1        0.0624
     17 H          -3.3680    2.2829    0.0011 H       1  LIG1        0.0624
     18 H           1.6947    4.2311    0.0015 H       1  LIG1        0.0625
     19 C          -0.4337    5.9018    0.0002 C.ar    1  LIG1        0.2034
     20 N          -1.5556    6.6724   -0.0000 N.ar    1  LIG1       -0.1252
     21 C          -0.0624    8.5718   -0.0008 C.ar    1  LIG1        0.2034
     22 N           0.8560    6.3372   -0.0000 N.ar    1  LIG1       -0.1252
     23 N          -1.3524    8.0065   -0.0005 N.ar    1  LIG1       -0.1252
     24 N           1.0244    7.6762   -0.0004 N.ar    1  LIG1       -0.1252
     25 C          -0.9975   10.7234   -0.0023 C.ar    1  LIG1       -0.0509
     26 C          -0.7506   12.1099   -0.0044 C.ar    1  LIG1       -0.0611
     27 C           0.1166    9.8593   -0.0013 C.ar    1  LIG1        0.0226
     28 C           0.5473   12.6159   -0.0048 C.ar    1  LIG1       -0.0617
     29 H          -1.5959   12.7945   -0.0054 H       1  LIG1        0.0618
     30 C           1.4125   10.3640   -0.0017 C.ar    1  LIG1       -0.0509
     31 C           1.6372   11.7445   -0.0034 C.ar    1  LIG1       -0.0611
     32 H           2.2551    9.6771   -0.0010 H       1  LIG1        0.0625
     33 H           0.7388   13.9018   -0.0066 H       1  LIG1        0.0618
     34 H          -2.2305   10.3114   -0.0018 H       1  LIG1        0.0625
     35 H           2.8509   12.2105   -0.0039 H       1  LIG1        0.0618
@<TRIPOS>BOND
     1    33    28    1
     2    29    26    1
     3    28    26   ar
     4    28    31   ar
     5    26    25   ar
     6    35    31    1
     7    31    30   ar
     8    25    34    1
     9    25    27   ar
    10    30    27   ar
    11    30    32    1
    12    27    21    1
    13     8     3    1
    14    21    23   ar
    15    21    24   ar
    16     6     1    1
    17    23    20   ar
    18    24    22   ar
    19     7     2    1
    20     1     2   ar
    21     1     5   ar
    22     2     3   ar
    23     3     4   ar
    24    20    19   ar
    25    22    19   ar
    26    13    10    1
    27    19    12    1
    28    10    12   ar
    29    10     9   ar
    30     5     4   ar
    31     4    11    1
    32    12    15   ar
    33    17     9    1
    34     9    11   ar
    35    11    14   ar
    36    15    18    1
    37    15    14   ar
    38    14    16    1
