@<TRIPOS>MOLECULE
mol_data/noopt/geoms/mol2/5412-12.out
 33 36 0 0 0
SMALL
GASTEIGER

@<TRIPOS>ATOM
      1 C          -2.0792   -1.7080   -0.0002 C.ar    1  LIG1       -0.0237
      2 C          -0.7020   -1.7080   -0.0002 C.ar    1  LIG1       -0.0541
      3 C          -0.1766   -0.3757   -0.0002 C.ar    1  LIG1       -0.0469
      4 C          -1.1831    0.5643    0.0006 C.ar    1  LIG1        0.0193
      5 S          -2.6937   -0.1528    0.0006 S.2     1  LIG1       -0.0967
      6 H          -2.8374   -2.7640   -0.0008 H       1  LIG1        0.0693
      7 H           0.0503   -2.7682   -0.0004 H       1  LIG1        0.0623
      8 H           1.0969   -0.1143   -0.0009 H       1  LIG1        0.0629
      9 C           0.2857    2.3936    0.0026 C.ar    1  LIG1       -0.0529
     10 C           0.4128    3.7962    0.0050 C.ar    1  LIG1       -0.0505
     11 C          -1.0166    1.8535    0.0014 C.ar    1  LIG1       -0.0113
     12 C          -0.7060    4.6262    0.0055 C.ar    1  LIG1        0.0173
     13 H           1.4085    4.2339    0.0061 H       1  LIG1        0.0625
     14 C          -2.1338    2.6817    0.0019 C.ar    1  LIG1       -0.0529
     15 C          -1.9870    4.0727    0.0039 C.ar    1  LIG1       -0.0505
     16 H          -3.1276    2.2411    0.0011 H       1  LIG1        0.0624
     17 H           1.3667    1.6714    0.0019 H       1  LIG1        0.0624
     18 H          -3.0350    4.8419    0.0046 H       1  LIG1        0.0625
     19 C          -0.5520    5.9171    0.0076 C.ar    1  LIG1        0.1358
     20 C          -1.3962    7.0081    0.0092 C.ar    1  LIG1       -0.0151
     21 C          -0.5527    8.1852    0.0113 C.ar    1  LIG1       -0.0122
     22 C           0.7515    7.7351    0.0109 C.ar    1  LIG1        0.1705
     23 O           0.7779    6.3400    0.0087 O.2     1  LIG1       -0.4517
     24 H          -2.6962    7.0083    0.0089 H       1  LIG1        0.0656
     25 H          -0.9701    9.4163    0.0132 H       1  LIG1        0.0657
     26 C           1.9247    8.2952    0.0120 C.ar    1  LIG1        0.1697
     27 C           3.2289    7.8458    0.0128 C.ar    1  LIG1       -0.0128
     28 C           4.0730    9.0224    0.0139 C.ar    1  LIG1       -0.0232
     29 C           3.2282   10.1132    0.0135 C.ar    1  LIG1        0.0927
     30 O           1.8985    9.6905    0.0123 O.2     1  LIG1       -0.4598
     31 H           3.3822   11.4041    0.0141 H       1  LIG1        0.1029
     32 H           3.6463    6.6146    0.0128 H       1  LIG1        0.0656
     33 H           5.3730    9.0222    0.0149 H       1  LIG1        0.0649
@<TRIPOS>BOND
     1     8     3    1
     2     6     1    1
     3     7     2    1
     4     2     3   ar
     5     2     1   ar
     6     3     4   ar
     7     1     5   ar
     8     4     5   ar
     9     4    11    1
    10    16    14    1
    11    11    14   ar
    12    11     9   ar
    13    17     9    1
    14    14    15   ar
    15     9    10   ar
    16    15    18    1
    17    15    12   ar
    18    10    12   ar
    19    10    13    1
    20    12    19    1
    21    19    23   ar
    22    19    20   ar
    23    23    22   ar
    24    24    20    1
    25    20    21   ar
    26    22    21   ar
    27    22    26    1
    28    21    25    1
    29    26    30   ar
    30    26    27   ar
    31    30    29   ar
    32    32    27    1
    33    27    28   ar
    34    29    28   ar
    35    29    31    1
    36    28    33    1
