@<TRIPOS>MOLECULE
mol_data/noopt/geoms/mol2/544-13.out
 37 40 0 0 0
SMALL
GASTEIGER

@<TRIPOS>ATOM
      1 C          -2.0792   -1.7080   -0.0002 C.ar    1  LIG1       -0.0237
      2 C          -0.7020   -1.7080   -0.0002 C.ar    1  LIG1       -0.0541
      3 C          -0.1766   -0.3757   -0.0002 C.ar    1  LIG1       -0.0469
      4 C          -1.1831    0.5643    0.0006 C.ar    1  LIG1        0.0193
      5 S          -2.6937   -0.1528    0.0006 S.2     1  LIG1       -0.0967
      6 H          -2.8374   -2.7640   -0.0008 H       1  LIG1        0.0693
      7 H           0.0503   -2.7682   -0.0004 H       1  LIG1        0.0623
      8 H           1.0969   -0.1143   -0.0009 H       1  LIG1        0.0629
      9 C           0.2857    2.3936    0.0026 C.ar    1  LIG1       -0.0530
     10 C           0.4128    3.7962    0.0050 C.ar    1  LIG1       -0.0534
     11 C          -1.0166    1.8535    0.0014 C.ar    1  LIG1       -0.0113
     12 C          -0.7060    4.6262    0.0055 C.ar    1  LIG1       -0.0178
     13 H           1.4085    4.2339    0.0061 H       1  LIG1        0.0624
     14 C          -2.1338    2.6817    0.0019 C.ar    1  LIG1       -0.0530
     15 C          -1.9870    4.0727    0.0039 C.ar    1  LIG1       -0.0534
     16 H          -3.1276    2.2411    0.0011 H       1  LIG1        0.0624
     17 H           1.3667    1.6714    0.0019 H       1  LIG1        0.0624
     18 H          -3.0350    4.8419    0.0046 H       1  LIG1        0.0624
     19 C          -1.6826    6.7593    0.0080 C.ar    1  LIG1       -0.0534
     20 C          -1.4627    8.1503    0.0088 C.ar    1  LIG1       -0.0521
     21 C          -0.5520    5.9170    0.0076 C.ar    1  LIG1       -0.0178
     22 C          -0.1749    8.6814    0.0097 C.ar    1  LIG1       -0.0017
     23 H          -2.3211    8.8184    0.0089 H       1  LIG1        0.0624
     24 C           0.7339    6.4467    0.0086 C.ar    1  LIG1       -0.0534
     25 C           0.9318    7.8314    0.0097 C.ar    1  LIG1       -0.0521
     26 H           1.5896    5.7763    0.0082 H       1  LIG1        0.0624
     27 H          -2.9074    6.3235    0.0074 H       1  LIG1        0.0624
     28 H           2.1361    8.3208    0.0105 H       1  LIG1        0.0624
     29 C          -0.0084    9.9707    0.0105 C.ar    1  LIG1        0.0465
     30 C           1.1305   10.7129    0.0107 C.ar    1  LIG1       -0.0364
     31 C           0.7427   12.0914    0.0128 C.ar    1  LIG1       -0.0438
     32 C          -0.6162   12.1310    0.0121 C.ar    1  LIG1        0.0022
     33 N          -1.0800   10.8348    0.0111 N.ar    1  LIG1       -0.3607
     34 H          -2.0369   10.5656    0.0104 H       1  LIG1        0.1653
     35 H          -1.4306   13.1442    0.0132 H       1  LIG1        0.0807
     36 H           2.3463   10.2524    0.0106 H       1  LIG1        0.0639
     37 H           1.5399   13.1183    0.0146 H       1  LIG1        0.0633
@<TRIPOS>BOND
     1     8     3    1
     2     6     1    1
     3     7     2    1
     4     2     3   ar
     5     2     1   ar
     6     3     4   ar
     7     1     5   ar
     8     4     5   ar
     9     4    11    1
    10    16    14    1
    11    11    14   ar
    12    11     9   ar
    13    17     9    1
    14    14    15   ar
    15     9    10   ar
    16    15    18    1
    17    15    12   ar
    18    10    12   ar
    19    10    13    1
    20    12    21    1
    21    27    19    1
    22    21    19   ar
    23    21    24   ar
    24    19    20   ar
    25    26    24    1
    26    24    25   ar
    27    20    23    1
    28    20    22   ar
    29    22    25   ar
    30    22    29    1
    31    25    28    1
    32    34    33    1
    33    29    30   ar
    34    29    33   ar
    35    36    30    1
    36    30    31   ar
    37    33    32   ar
    38    32    31   ar
    39    32    35    1
    40    31    37    1
