@<TRIPOS>MOLECULE
mol_data/noopt/geoms/mol2/544.out
 29 31 0 0 0
SMALL
GASTEIGER

@<TRIPOS>ATOM
      1 C          -2.0792   -1.7080   -0.0002 C.ar    1  LIG1       -0.0237
      2 C          -0.7020   -1.7080   -0.0002 C.ar    1  LIG1       -0.0541
      3 C          -0.1766   -0.3757   -0.0002 C.ar    1  LIG1       -0.0469
      4 C          -1.1831    0.5643    0.0006 C.ar    1  LIG1        0.0193
      5 S          -2.6937   -0.1528    0.0006 S.2     1  LIG1       -0.0967
      6 H          -2.8374   -2.7640   -0.0008 H       1  LIG1        0.0693
      7 H           0.0503   -2.7682   -0.0004 H       1  LIG1        0.0623
      8 H           1.0969   -0.1143   -0.0009 H       1  LIG1        0.0629
      9 C           0.2857    2.3936    0.0026 C.ar    1  LIG1       -0.0530
     10 C           0.4128    3.7962    0.0050 C.ar    1  LIG1       -0.0534
     11 C          -1.0166    1.8535    0.0014 C.ar    1  LIG1       -0.0113
     12 C          -0.7060    4.6262    0.0055 C.ar    1  LIG1       -0.0178
     13 H           1.4085    4.2339    0.0061 H       1  LIG1        0.0624
     14 C          -2.1338    2.6817    0.0019 C.ar    1  LIG1       -0.0530
     15 C          -1.9870    4.0727    0.0039 C.ar    1  LIG1       -0.0534
     16 H          -3.1276    2.2411    0.0011 H       1  LIG1        0.0624
     17 H           1.3667    1.6714    0.0019 H       1  LIG1        0.0624
     18 H          -3.0350    4.8419    0.0046 H       1  LIG1        0.0624
     19 C           0.7450    6.4697    0.0095 C.ar    1  LIG1       -0.0540
     20 C           0.8585    7.8734    0.0133 C.ar    1  LIG1       -0.0612
     21 C          -0.5520    5.9170    0.0076 C.ar    1  LIG1       -0.0179
     22 C          -0.2683    8.6926    0.0145 C.ar    1  LIG1       -0.0617
     23 H           1.8499    8.3208    0.0150 H       1  LIG1        0.0618
     24 C          -1.6772    6.7343    0.0088 C.ar    1  LIG1       -0.0540
     25 C          -1.5438    8.1267    0.0122 C.ar    1  LIG1       -0.0612
     26 H          -2.6666    6.2840    0.0074 H       1  LIG1        0.0624
     27 H          -0.1269    9.9849    0.0179 H       1  LIG1        0.0618
     28 H           1.8329    5.7580    0.0083 H       1  LIG1        0.0624
     29 H          -2.5993    8.8856    0.0135 H       1  LIG1        0.0618
@<TRIPOS>BOND
     1     8     3    1
     2     6     1    1
     3     7     2    1
     4     2     3   ar
     5     2     1   ar
     6     3     4   ar
     7     1     5   ar
     8     4     5   ar
     9     4    11    1
    10    16    14    1
    11    11    14   ar
    12    11     9   ar
    13    17     9    1
    14    14    15   ar
    15     9    10   ar
    16    15    18    1
    17    15    12   ar
    18    10    12   ar
    19    10    13    1
    20    12    21    1
    21    26    24    1
    22    21    24   ar
    23    21    19   ar
    24    28    19    1
    25    24    25   ar
    26    19    20   ar
    27    25    29    1
    28    25    22   ar
    29    20    22   ar
    30    20    23    1
    31    22    27    1
