@<TRIPOS>MOLECULE
mol_data/noopt/geoms/mol2/548.out
 25 27 0 0 0
SMALL
GASTEIGER

@<TRIPOS>ATOM
      1 C          -2.0792   -1.7080   -0.0002 C.ar    1  LIG1       -0.0237
      2 C          -0.7020   -1.7080   -0.0002 C.ar    1  LIG1       -0.0541
      3 C          -0.1766   -0.3757   -0.0002 C.ar    1  LIG1       -0.0469
      4 C          -1.1831    0.5643    0.0006 C.ar    1  LIG1        0.0193
      5 S          -2.6937   -0.1528    0.0006 S.2     1  LIG1       -0.0967
      6 H          -2.8374   -2.7640   -0.0008 H       1  LIG1        0.0693
      7 H           0.0503   -2.7682   -0.0004 H       1  LIG1        0.0623
      8 H           1.0969   -0.1143   -0.0009 H       1  LIG1        0.0629
      9 C           0.2857    2.3936    0.0026 C.ar    1  LIG1       -0.0529
     10 C           0.4128    3.7962    0.0050 C.ar    1  LIG1       -0.0503
     11 C          -1.0166    1.8535    0.0014 C.ar    1  LIG1       -0.0113
     12 C          -0.7060    4.6262    0.0055 C.ar    1  LIG1        0.0227
     13 H           1.4085    4.2339    0.0061 H       1  LIG1        0.0625
     14 C          -2.1338    2.6817    0.0019 C.ar    1  LIG1       -0.0529
     15 C          -1.9870    4.0727    0.0039 C.ar    1  LIG1       -0.0503
     16 H          -3.1276    2.2411    0.0011 H       1  LIG1        0.0624
     17 H           1.3667    1.6714    0.0019 H       1  LIG1        0.0624
     18 H          -3.0350    4.8419    0.0046 H       1  LIG1        0.0625
     19 C          -0.5520    5.9171    0.0076 C.ar    1  LIG1        0.2033
     20 N           0.7289    6.3774    0.0086 N.ar    1  LIG1       -0.1258
     21 C          -0.2328    8.5938    0.0120 C.ar    1  LIG1        0.1605
     22 N          -1.6887    6.6658    0.0086 N.ar    1  LIG1       -0.1258
     23 N           0.8713    7.7194    0.0108 N.ar    1  LIG1       -0.1339
     24 N          -1.5115    8.0036    0.0107 N.ar    1  LIG1       -0.1339
     25 H          -0.0788    9.8846    0.0141 H       1  LIG1        0.1085
@<TRIPOS>BOND
     1     8     3    1
     2     6     1    1
     3     7     2    1
     4     2     3   ar
     5     2     1   ar
     6     3     4   ar
     7     1     5   ar
     8     4     5   ar
     9     4    11    1
    10    16    14    1
    11    11    14   ar
    12    11     9   ar
    13    17     9    1
    14    14    15   ar
    15     9    10   ar
    16    15    18    1
    17    15    12   ar
    18    10    12   ar
    19    10    13    1
    20    12    19    1
    21    19    20   ar
    22    19    22   ar
    23    20    23   ar
    24    22    24   ar
    25    24    21   ar
    26    23    21   ar
    27    21    25    1
