@<TRIPOS>MOLECULE
mol_data/noopt/geoms/mol2/55-.out
 16 17 0 0 0
SMALL
GASTEIGER

@<TRIPOS>ATOM
      1 C          -2.0792   -1.7080   -0.0002 C.ar    1  LIG1       -0.0237
      2 C          -0.7020   -1.7080   -0.0002 C.ar    1  LIG1       -0.0541
      3 C          -0.1766   -0.3757   -0.0002 C.ar    1  LIG1       -0.0464
      4 C          -1.1831    0.5643    0.0006 C.ar    1  LIG1        0.0259
      5 S          -2.6937   -0.1528    0.0006 S.2     1  LIG1       -0.0961
      6 H          -2.8374   -2.7640   -0.0008 H       1  LIG1        0.0693
      7 H           0.0503   -2.7682   -0.0004 H       1  LIG1        0.0623
      8 H           1.0969   -0.1143   -0.0009 H       1  LIG1        0.0629
      9 C          -1.0166    1.8536    0.0014 C.ar    1  LIG1        0.0259
     10 C          -2.0232    2.7935    0.0020 C.ar    1  LIG1       -0.0464
     11 C          -1.4980    4.1259    0.0036 C.ar    1  LIG1       -0.0541
     12 C          -0.1208    4.1260    0.0033 C.ar    1  LIG1       -0.0237
     13 S           0.4939    2.5709    0.0019 S.2     1  LIG1       -0.0961
     14 H           0.6374    5.1820    0.0038 H       1  LIG1        0.0693
     15 H          -3.2966    2.5320    0.0015 H       1  LIG1        0.0629
     16 H          -2.2504    5.1860    0.0051 H       1  LIG1        0.0623
@<TRIPOS>BOND
     1     8     3    1
     2     6     1    1
     3     7     2    1
     4     1     2   ar
     5     1     5   ar
     6     2     3   ar
     7     3     4   ar
     8     4     5   ar
     9     4     9    1
    10     9    13   ar
    11     9    10   ar
    12    15    10    1
    13    13    12   ar
    14    10    11   ar
    15    12    11   ar
    16    12    14    1
    17    11    16    1
