@<TRIPOS>MOLECULE
mol_data/noopt/geoms/mol2/55-13.out
 24 26 0 0 0
SMALL
GASTEIGER

@<TRIPOS>ATOM
      1 C          -2.0792   -1.7080   -0.0002 C.ar    1  LIG1       -0.0237
      2 C          -0.7020   -1.7080   -0.0002 C.ar    1  LIG1       -0.0541
      3 C          -0.1766   -0.3757   -0.0002 C.ar    1  LIG1       -0.0464
      4 C          -1.1831    0.5643    0.0006 C.ar    1  LIG1        0.0259
      5 S          -2.6937   -0.1528    0.0006 S.2     1  LIG1       -0.0961
      6 H          -2.8374   -2.7640   -0.0008 H       1  LIG1        0.0693
      7 H           0.0503   -2.7682   -0.0004 H       1  LIG1        0.0623
      8 H           1.0969   -0.1143   -0.0009 H       1  LIG1        0.0629
      9 C          -1.0166    1.8536    0.0014 C.ar    1  LIG1        0.0265
     10 C          -2.0232    2.7935    0.0020 C.ar    1  LIG1       -0.0458
     11 C          -1.4980    4.1259    0.0036 C.ar    1  LIG1       -0.0449
     12 C          -0.1208    4.1260    0.0033 C.ar    1  LIG1        0.0361
     13 S           0.4939    2.5709    0.0019 S.2     1  LIG1       -0.0863
     14 H          -3.2966    2.5320    0.0015 H       1  LIG1        0.0629
     15 H          -2.2504    5.1860    0.0051 H       1  LIG1        0.0630
     16 C           0.6374    5.1820    0.0038 C.ar    1  LIG1        0.0531
     17 C           1.9921    5.2951    0.0039 C.ar    1  LIG1       -0.0359
     18 C           2.3046    6.6926    0.0057 C.ar    1  LIG1       -0.0438
     19 C           1.1271    7.3720    0.0050 C.ar    1  LIG1        0.0022
     20 N           0.1039    6.4511    0.0043 N.ar    1  LIG1       -0.3603
     21 H          -0.8662    6.6680    0.0036 H       1  LIG1        0.1653
     22 H           0.8909    8.6504    0.0060 H       1  LIG1        0.0807
     23 H           2.8438    4.3130    0.0038 H       1  LIG1        0.0639
     24 H           3.4935    7.2184    0.0074 H       1  LIG1        0.0633
@<TRIPOS>BOND
     1     8     3    1
     2     6     1    1
     3     7     2    1
     4     2     3   ar
     5     2     1   ar
     6     3     4   ar
     7     1     5   ar
     8     4     5   ar
     9     4     9    1
    10     9    13   ar
    11     9    10   ar
    12    14    10    1
    13    13    12   ar
    14    10    11   ar
    15    12    11   ar
    16    12    16    1
    17    11    15    1
    18    21    20    1
    19    23    17    1
    20    16    17   ar
    21    16    20   ar
    22    17    18   ar
    23    20    19   ar
    24    19    18   ar
    25    19    22    1
    26    18    24    1
