@<TRIPOS>MOLECULE
mol_data/noopt/geoms/mol2/55-4-.out
 26 28 0 0 0
SMALL
GASTEIGER

@<TRIPOS>ATOM
      1 C          -2.0792   -1.7080   -0.0002 C.ar    1  LIG1       -0.0237
      2 C          -0.7020   -1.7080   -0.0002 C.ar    1  LIG1       -0.0541
      3 C          -0.1766   -0.3757   -0.0002 C.ar    1  LIG1       -0.0464
      4 C          -1.1831    0.5643    0.0006 C.ar    1  LIG1        0.0259
      5 S          -2.6937   -0.1528    0.0006 S.2     1  LIG1       -0.0961
      6 H          -2.8374   -2.7640   -0.0008 H       1  LIG1        0.0693
      7 H           0.0503   -2.7682   -0.0004 H       1  LIG1        0.0623
      8 H           1.0969   -0.1143   -0.0009 H       1  LIG1        0.0629
      9 C          -1.0166    1.8536    0.0014 C.ar    1  LIG1        0.0265
     10 C          -2.0232    2.7935    0.0020 C.ar    1  LIG1       -0.0458
     11 C          -1.4980    4.1259    0.0036 C.ar    1  LIG1       -0.0463
     12 C          -0.1208    4.1260    0.0033 C.ar    1  LIG1        0.0199
     13 S           0.4939    2.5709    0.0019 S.2     1  LIG1       -0.0877
     14 H          -3.2966    2.5320    0.0015 H       1  LIG1        0.0629
     15 H          -2.2504    5.1860    0.0051 H       1  LIG1        0.0629
     16 C           0.0541    6.4655    0.0034 C.ar    1  LIG1       -0.0535
     17 C           0.9184    7.5774    0.0025 C.ar    1  LIG1       -0.0612
     18 C           0.6374    5.1820    0.0038 C.ar    1  LIG1       -0.0113
     19 C           2.3026    7.4206    0.0027 C.ar    1  LIG1       -0.0617
     20 H           0.4893    8.5769    0.0020 H       1  LIG1        0.0618
     21 C           2.0192    5.0248    0.0040 C.ar    1  LIG1       -0.0535
     22 C           2.8611    6.1418    0.0035 C.ar    1  LIG1       -0.0612
     23 H           2.4448    4.0246    0.0043 H       1  LIG1        0.0624
     24 H           3.0710    8.4692    0.0019 H       1  LIG1        0.0618
     25 H          -1.2289    6.6754    0.0035 H       1  LIG1        0.0624
     26 H           4.1521    5.9887    0.0035 H       1  LIG1        0.0618
@<TRIPOS>BOND
     1     8     3    1
     2     6     1    1
     3     7     2    1
     4     2     3   ar
     5     2     1   ar
     6     3     4   ar
     7     1     5   ar
     8     4     5   ar
     9     4     9    1
    10     9    13   ar
    11     9    10   ar
    12    14    10    1
    13    13    12   ar
    14    24    19    1
    15    20    17    1
    16    10    11   ar
    17    17    19   ar
    18    17    16   ar
    19    19    22   ar
    20    12    11   ar
    21    12    18    1
    22    16    25    1
    23    16    18   ar
    24    26    22    1
    25    22    21   ar
    26    11    15    1
    27    18    21   ar
    28    21    23    1
