@<TRIPOS>MOLECULE
mol_data/noopt/geoms/mol2/55-4.out
 26 28 0 0 0
SMALL
GASTEIGER

@<TRIPOS>ATOM
      1 C          -2.0792   -1.7080   -0.0002 C.ar    1  LIG1       -0.0237
      2 C          -0.7020   -1.7080   -0.0002 C.ar    1  LIG1       -0.0541
      3 C          -0.1766   -0.3757   -0.0002 C.ar    1  LIG1       -0.0464
      4 C          -1.1831    0.5643    0.0006 C.ar    1  LIG1        0.0259
      5 S          -2.6937   -0.1528    0.0006 S.2     1  LIG1       -0.0961
      6 H          -2.8374   -2.7640   -0.0008 H       1  LIG1        0.0693
      7 H           0.0503   -2.7682   -0.0004 H       1  LIG1        0.0623
      8 H           1.0969   -0.1143   -0.0009 H       1  LIG1        0.0629
      9 C          -1.0166    1.8536    0.0014 C.ar    1  LIG1        0.0265
     10 C          -2.0232    2.7935    0.0020 C.ar    1  LIG1       -0.0458
     11 C          -1.4980    4.1259    0.0036 C.ar    1  LIG1       -0.0463
     12 C          -0.1208    4.1260    0.0033 C.ar    1  LIG1        0.0199
     13 S           0.4939    2.5709    0.0019 S.2     1  LIG1       -0.0877
     14 H          -3.2966    2.5320    0.0015 H       1  LIG1        0.0629
     15 H          -2.2504    5.1860    0.0051 H       1  LIG1        0.0629
     16 C           2.0400    5.0396    0.0049 C.ar    1  LIG1       -0.0535
     17 C           2.8172    6.2140    0.0070 C.ar    1  LIG1       -0.0612
     18 C           0.6374    5.1820    0.0038 C.ar    1  LIG1       -0.0113
     19 C           2.2261    7.4755    0.0075 C.ar    1  LIG1       -0.0617
     20 H           3.9015    6.1270    0.0081 H       1  LIG1        0.0618
     21 C           0.0467    6.4410    0.0043 C.ar    1  LIG1       -0.0535
     22 C           0.8359    7.5959    0.0060 C.ar    1  LIG1       -0.0612
     23 H          -1.0371    6.5245    0.0035 H       1  LIG1        0.0624
     24 H           2.9741    8.5388    0.0093 H       1  LIG1        0.0618
     25 H           2.6490    3.8911    0.0043 H       1  LIG1        0.0624
     26 H           0.2782    8.7702    0.0065 H       1  LIG1        0.0618
@<TRIPOS>BOND
     1     8     3    1
     2     6     1    1
     3     7     2    1
     4     2     3   ar
     5     2     1   ar
     6     3     4   ar
     7     1     5   ar
     8     4     5   ar
     9     4     9    1
    10     9    13   ar
    11     9    10   ar
    12    14    10    1
    13    13    12   ar
    14    10    11   ar
    15    12    11   ar
    16    12    18    1
    17    23    21    1
    18    11    15    1
    19    18    21   ar
    20    18    16   ar
    21    21    22   ar
    22    25    16    1
    23    16    17   ar
    24    22    26    1
    25    22    19   ar
    26    17    19   ar
    27    17    20    1
    28    19    24    1
