@<TRIPOS>MOLECULE
mol_data/noopt/geoms/mol2/55-5.out
 23 25 0 0 0
SMALL
GASTEIGER

@<TRIPOS>ATOM
      1 C          -2.0792   -1.7080   -0.0002 C.ar    1  LIG1       -0.0237
      2 C          -0.7020   -1.7080   -0.0002 C.ar    1  LIG1       -0.0541
      3 C          -0.1766   -0.3757   -0.0002 C.ar    1  LIG1       -0.0464
      4 C          -1.1831    0.5643    0.0006 C.ar    1  LIG1        0.0259
      5 S          -2.6937   -0.1528    0.0006 S.2     1  LIG1       -0.0961
      6 H          -2.8374   -2.7640   -0.0008 H       1  LIG1        0.0693
      7 H           0.0503   -2.7682   -0.0004 H       1  LIG1        0.0623
      8 H           1.0969   -0.1143   -0.0009 H       1  LIG1        0.0629
      9 C          -1.0166    1.8536    0.0014 C.ar    1  LIG1        0.0265
     10 C          -2.0232    2.7935    0.0020 C.ar    1  LIG1       -0.0458
     11 C          -1.4980    4.1259    0.0036 C.ar    1  LIG1       -0.0458
     12 C          -0.1208    4.1260    0.0033 C.ar    1  LIG1        0.0265
     13 S           0.4939    2.5709    0.0019 S.2     1  LIG1       -0.0872
     14 H          -3.2966    2.5320    0.0015 H       1  LIG1        0.0629
     15 H          -2.2504    5.1860    0.0051 H       1  LIG1        0.0629
     16 C           0.6374    5.1820    0.0038 C.ar    1  LIG1        0.0259
     17 C           2.0146    5.1820    0.0038 C.ar    1  LIG1       -0.0464
     18 C           2.5400    6.5143    0.0038 C.ar    1  LIG1       -0.0541
     19 C           1.5335    7.4543    0.0046 C.ar    1  LIG1       -0.0237
     20 S           0.0229    6.7372    0.0046 S.2     1  LIG1       -0.0961
     21 H           1.7000    8.7436    0.0054 H       1  LIG1        0.0693
     22 H           2.7669    4.1218    0.0036 H       1  LIG1        0.0629
     23 H           3.8134    6.7757    0.0031 H       1  LIG1        0.0623
@<TRIPOS>BOND
     1     8     3    1
     2     6     1    1
     3     7     2    1
     4     2     3   ar
     5     2     1   ar
     6     3     4   ar
     7     1     5   ar
     8     4     5   ar
     9     4     9    1
    10     9    13   ar
    11     9    10   ar
    12    14    10    1
    13    13    12   ar
    14    10    11   ar
    15    23    18    1
    16    12    11   ar
    17    12    16    1
    18    11    15    1
    19    22    17    1
    20    18    17   ar
    21    18    19   ar
    22    17    16   ar
    23    16    20   ar
    24    19    20   ar
    25    19    21    1
