@<TRIPOS>MOLECULE
mol_data/noopt/geoms/mol2/55-8-4-.out
 32 35 0 0 0
SMALL
GASTEIGER

@<TRIPOS>ATOM
      1 C          -2.0792   -1.7080   -0.0002 C.ar    1  LIG1       -0.0237
      2 C          -0.7020   -1.7080   -0.0002 C.ar    1  LIG1       -0.0541
      3 C          -0.1766   -0.3757   -0.0002 C.ar    1  LIG1       -0.0464
      4 C          -1.1831    0.5643    0.0006 C.ar    1  LIG1        0.0259
      5 S          -2.6937   -0.1528    0.0006 S.2     1  LIG1       -0.0961
      6 H          -2.8374   -2.7640   -0.0008 H       1  LIG1        0.0693
      7 H           0.0503   -2.7682   -0.0004 H       1  LIG1        0.0623
      8 H           1.0969   -0.1143   -0.0009 H       1  LIG1        0.0629
      9 C          -1.0166    1.8536    0.0014 C.ar    1  LIG1        0.0266
     10 C          -2.0232    2.7935    0.0020 C.ar    1  LIG1       -0.0457
     11 C          -1.4980    4.1259    0.0036 C.ar    1  LIG1       -0.0432
     12 C          -0.1208    4.1260    0.0033 C.ar    1  LIG1        0.0604
     13 S           0.4939    2.5709    0.0019 S.2     1  LIG1       -0.0845
     14 H          -3.2966    2.5320    0.0015 H       1  LIG1        0.0629
     15 H          -2.2504    5.1860    0.0051 H       1  LIG1        0.0630
     16 C           0.6374    5.1820    0.0038 C.ar    1  LIG1        0.2099
     17 N           0.0036    6.3866    0.0041 N.ar    1  LIG1       -0.1247
     18 C           2.2097    7.3717    0.0050 C.ar    1  LIG1        0.2034
     19 N           1.9814    4.9666    0.0041 N.ar    1  LIG1       -0.1247
     20 N           0.8049    7.4724    0.0047 N.ar    1  LIG1       -0.1252
     21 N           2.7541    6.0729    0.0048 N.ar    1  LIG1       -0.1252
     22 C           2.3845    9.7112    0.0051 C.ar    1  LIG1       -0.0509
     23 C           3.2489   10.8231    0.0042 C.ar    1  LIG1       -0.0611
     24 C           2.9678    8.4276    0.0056 C.ar    1  LIG1        0.0226
     25 C           4.6331   10.6662    0.0044 C.ar    1  LIG1       -0.0617
     26 H           2.8198   11.8226    0.0037 H       1  LIG1        0.0618
     27 C           4.3496    8.2705    0.0057 C.ar    1  LIG1       -0.0509
     28 C           5.1916    9.3875    0.0052 C.ar    1  LIG1       -0.0611
     29 H           4.7752    7.2702    0.0060 H       1  LIG1        0.0625
     30 H           5.4015   11.7148    0.0037 H       1  LIG1        0.0618
     31 H           1.1016    9.9210    0.0052 H       1  LIG1        0.0625
     32 H           6.4826    9.2344    0.0052 H       1  LIG1        0.0618
@<TRIPOS>BOND
     1     8     3    1
     2     6     1    1
     3     7     2    1
     4     2     3   ar
     5     2     1   ar
     6     3     4   ar
     7     1     5   ar
     8     4     5   ar
     9     4     9    1
    10     9    13   ar
    11     9    10   ar
    12    14    10    1
    13    13    12   ar
    14    10    11   ar
    15    12    11   ar
    16    12    16    1
    17    11    15    1
    18    30    25    1
    19    26    23    1
    20    16    17   ar
    21    16    19   ar
    22    17    20   ar
    23    19    21   ar
    24    23    25   ar
    25    23    22   ar
    26    25    28   ar
    27    20    18   ar
    28    21    18   ar
    29    18    24    1
    30    22    31    1
    31    22    24   ar
    32    32    28    1
    33    28    27   ar
    34    24    27   ar
    35    27    29    1
