@<TRIPOS>MOLECULE
mol_data/noopt/geoms/mol2/551212-.out
 30 33 0 0 0
SMALL
GASTEIGER

@<TRIPOS>ATOM
      1 C          -2.0792   -1.7080   -0.0002 C.ar    1  LIG1       -0.0237
      2 C          -0.7020   -1.7080   -0.0002 C.ar    1  LIG1       -0.0541
      3 C          -0.1766   -0.3757   -0.0002 C.ar    1  LIG1       -0.0464
      4 C          -1.1831    0.5643    0.0006 C.ar    1  LIG1        0.0259
      5 S          -2.6937   -0.1528    0.0006 S.2     1  LIG1       -0.0961
      6 H          -2.8374   -2.7640   -0.0008 H       1  LIG1        0.0693
      7 H           0.0503   -2.7682   -0.0004 H       1  LIG1        0.0623
      8 H           1.0969   -0.1143   -0.0009 H       1  LIG1        0.0629
      9 C          -1.0166    1.8536    0.0014 C.ar    1  LIG1        0.0266
     10 C           0.1958    2.5069    0.0015 C.ar    1  LIG1       -0.0457
     11 C           0.0263    3.9290    0.0017 C.ar    1  LIG1       -0.0434
     12 C          -1.3057    4.2790    0.0026 C.ar    1  LIG1        0.0550
     13 S          -2.2953    2.9311    0.0023 S.2     1  LIG1       -0.0847
     14 H           1.3610    1.9305    0.0013 H       1  LIG1        0.0629
     15 H           1.0233    4.7632    0.0012 H       1  LIG1        0.0630
     16 C          -1.7708    5.4930    0.0035 C.ar    1  LIG1        0.1424
     17 C          -1.2191    6.7574    0.0043 C.ar    1  LIG1       -0.0146
     18 C          -2.3249    7.6924    0.0052 C.ar    1  LIG1       -0.0121
     19 C          -3.4794    6.9369    0.0049 C.ar    1  LIG1        0.1706
     20 O          -3.1638    5.5778    0.0038 O.2     1  LIG1       -0.4512
     21 H           0.0414    7.0756    0.0043 H       1  LIG1        0.0656
     22 H          -2.2213    8.9883    0.0061 H       1  LIG1        0.0657
     23 C          -4.7539    7.1931    0.0054 C.ar    1  LIG1        0.1697
     24 C          -5.9086    6.4383    0.0058 C.ar    1  LIG1       -0.0128
     25 C          -7.0149    7.3727    0.0063 C.ar    1  LIG1       -0.0232
     26 C          -6.4625    8.6371    0.0063 C.ar    1  LIG1        0.0927
     27 O          -5.0698    8.5524    0.0058 O.2     1  LIG1       -0.4598
     28 H          -6.9276    9.8510    0.0066 H       1  LIG1        0.1029
     29 H          -6.0122    5.1425    0.0057 H       1  LIG1        0.0656
     30 H          -8.2754    7.0546    0.0068 H       1  LIG1        0.0649
@<TRIPOS>BOND
     1     8     3    1
     2     6     1    1
     3     7     2    1
     4     2     3   ar
     5     2     1   ar
     6     3     4   ar
     7     1     5   ar
     8     4     5   ar
     9     4     9    1
    10    15    11    1
    11    14    10    1
    12     9    10   ar
    13     9    13   ar
    14    10    11   ar
    15    11    12   ar
    16    13    12   ar
    17    12    16    1
    18    16    20   ar
    19    16    17   ar
    20    20    19   ar
    21    21    17    1
    22    17    18   ar
    23    19    18   ar
    24    19    23    1
    25    18    22    1
    26    23    27   ar
    27    23    24   ar
    28    29    24    1
    29    27    26   ar
    30    24    25   ar
    31    26    25   ar
    32    26    28    1
    33    25    30    1
