@<TRIPOS>MOLECULE
mol_data/noopt/geoms/mol2/5513-4-.out
 34 37 0 0 0
SMALL
GASTEIGER

@<TRIPOS>ATOM
      1 C          -2.0792   -1.7080   -0.0002 C.ar    1  LIG1       -0.0237
      2 C          -0.7020   -1.7080   -0.0002 C.ar    1  LIG1       -0.0541
      3 C          -0.1766   -0.3757   -0.0002 C.ar    1  LIG1       -0.0464
      4 C          -1.1831    0.5643    0.0006 C.ar    1  LIG1        0.0259
      5 S          -2.6937   -0.1528    0.0006 S.2     1  LIG1       -0.0961
      6 H          -2.8374   -2.7640   -0.0008 H       1  LIG1        0.0693
      7 H           0.0503   -2.7682   -0.0004 H       1  LIG1        0.0623
      8 H           1.0969   -0.1143   -0.0009 H       1  LIG1        0.0629
      9 C          -1.0166    1.8536    0.0014 C.ar    1  LIG1        0.0265
     10 C           0.1958    2.5069    0.0015 C.ar    1  LIG1       -0.0458
     11 C           0.0263    3.9290    0.0017 C.ar    1  LIG1       -0.0449
     12 C          -1.3057    4.2790    0.0026 C.ar    1  LIG1        0.0361
     13 S          -2.2953    2.9311    0.0023 S.2     1  LIG1       -0.0863
     14 H           1.3610    1.9305    0.0013 H       1  LIG1        0.0629
     15 H           1.0233    4.7632    0.0012 H       1  LIG1        0.0630
     16 C          -1.7708    5.4930    0.0035 C.ar    1  LIG1        0.0536
     17 C          -3.0523    5.9465    0.0047 C.ar    1  LIG1       -0.0353
     18 C          -2.9995    7.3776    0.0043 C.ar    1  LIG1       -0.0358
     19 C          -1.6881    7.7356    0.0047 C.ar    1  LIG1        0.0469
     20 N          -0.9324    6.5849    0.0037 N.ar    1  LIG1       -0.3537
     21 H           0.0610    6.5483    0.0039 H       1  LIG1        0.1659
     22 H          -4.1256    5.2131    0.0046 H       1  LIG1        0.0639
     23 H          -4.0159    8.1881    0.0041 H       1  LIG1        0.0639
     24 C          -1.9421   10.0679    0.0039 C.ar    1  LIG1       -0.0526
     25 C          -1.2947   11.3185    0.0024 C.ar    1  LIG1       -0.0611
     26 C          -1.1348    8.9119    0.0047 C.ar    1  LIG1       -0.0017
     27 C           0.0949   11.4163    0.0023 C.ar    1  LIG1       -0.0617
     28 H          -1.8986   12.2232    0.0016 H       1  LIG1        0.0618
     29 C           0.2525    9.0090    0.0045 C.ar    1  LIG1       -0.0526
     30 C           0.8770   10.2606    0.0034 C.ar    1  LIG1       -0.0611
     31 H           0.8531    8.1030    0.0050 H       1  LIG1        0.0624
     32 H           0.6596   12.5873    0.0010 H       1  LIG1        0.0618
     33 H          -3.2418   10.0406    0.0043 H       1  LIG1        0.0624
     34 H           2.1742   10.3452    0.0032 H       1  LIG1        0.0618
@<TRIPOS>BOND
     1     8     3    1
     2     6     1    1
     3     7     2    1
     4     2     3   ar
     5     2     1   ar
     6     3     4   ar
     7     1     5   ar
     8     4     5   ar
     9     4     9    1
    10    32    27    1
    11    15    11    1
    12    14    10    1
    13     9    10   ar
    14     9    13   ar
    15    10    11   ar
    16    28    25    1
    17    11    12   ar
    18    27    25   ar
    19    27    30   ar
    20    13    12   ar
    21    25    24   ar
    22    12    16    1
    23    34    30    1
    24    30    29   ar
    25    16    20   ar
    26    16    17   ar
    27    20    21    1
    28    20    19   ar
    29    24    33    1
    30    24    26   ar
    31    23    18    1
    32    18    19   ar
    33    18    17   ar
    34    29    26   ar
    35    29    31    1
    36    22    17    1
    37    19    26    1
