@<TRIPOS>MOLECULE
mol_data/noopt/geoms/mol2/555-5-.out
 30 33 0 0 0
SMALL
GASTEIGER

@<TRIPOS>ATOM
      1 C          -2.0792   -1.7080   -0.0002 C.ar    1  LIG1       -0.0237
      2 C          -0.7020   -1.7080   -0.0002 C.ar    1  LIG1       -0.0541
      3 C          -0.1766   -0.3757   -0.0002 C.ar    1  LIG1       -0.0464
      4 C          -1.1831    0.5643    0.0006 C.ar    1  LIG1        0.0259
      5 S          -2.6937   -0.1528    0.0006 S.2     1  LIG1       -0.0961
      6 H          -2.8374   -2.7640   -0.0008 H       1  LIG1        0.0693
      7 H           0.0503   -2.7682   -0.0004 H       1  LIG1        0.0623
      8 H           1.0969   -0.1143   -0.0009 H       1  LIG1        0.0629
      9 C          -1.0166    1.8536    0.0014 C.ar    1  LIG1        0.0265
     10 C           0.1958    2.5069    0.0015 C.ar    1  LIG1       -0.0458
     11 C           0.0263    3.9290    0.0017 C.ar    1  LIG1       -0.0458
     12 C          -1.3057    4.2790    0.0026 C.ar    1  LIG1        0.0265
     13 S          -2.2953    2.9311    0.0023 S.2     1  LIG1       -0.0872
     14 H           1.3610    1.9305    0.0013 H       1  LIG1        0.0629
     15 H           1.0233    4.7632    0.0012 H       1  LIG1        0.0629
     16 C          -1.7708    5.4930    0.0035 C.ar    1  LIG1        0.0265
     17 C          -3.1028    5.8429    0.0043 C.ar    1  LIG1       -0.0458
     18 C          -3.2725    7.2649    0.0060 C.ar    1  LIG1       -0.0458
     19 C          -2.0602    7.9184    0.0057 C.ar    1  LIG1        0.0265
     20 S          -0.7813    6.8411    0.0041 S.2     1  LIG1       -0.0872
     21 H          -4.0997    5.0086    0.0037 H       1  LIG1        0.0629
     22 H          -4.4377    7.8413    0.0077 H       1  LIG1        0.0629
     23 C          -1.8937    9.2077    0.0065 C.ar    1  LIG1        0.0259
     24 C          -2.9003   10.1476    0.0070 C.ar    1  LIG1       -0.0464
     25 C          -2.3751   11.4800    0.0085 C.ar    1  LIG1       -0.0541
     26 C          -0.9979   11.4801    0.0082 C.ar    1  LIG1       -0.0237
     27 S          -0.3832    9.9251    0.0069 S.2     1  LIG1       -0.0961
     28 H          -0.2397   12.5361    0.0087 H       1  LIG1        0.0693
     29 H          -4.1738    9.8861    0.0065 H       1  LIG1        0.0629
     30 H          -3.1275   12.5401    0.0100 H       1  LIG1        0.0623
@<TRIPOS>BOND
     1     8     3    1
     2     6     1    1
     3     7     2    1
     4     2     3   ar
     5     2     1   ar
     6     3     4   ar
     7     1     5   ar
     8     4     5   ar
     9     4     9    1
    10    15    11    1
    11    14    10    1
    12     9    10   ar
    13     9    13   ar
    14    10    11   ar
    15    11    12   ar
    16    13    12   ar
    17    12    16    1
    18    16    20   ar
    19    16    17   ar
    20    21    17    1
    21    20    19   ar
    22    17    18   ar
    23    19    18   ar
    24    19    23    1
    25    18    22    1
    26    23    27   ar
    27    23    24   ar
    28    29    24    1
    29    27    26   ar
    30    24    25   ar
    31    26    25   ar
    32    26    28    1
    33    25    30    1
