@<TRIPOS>MOLECULE
mol_data/noopt/geoms/mol2/558-5-.out
 29 32 0 0 0
SMALL
GASTEIGER

@<TRIPOS>ATOM
      1 C          -2.0792   -1.7080   -0.0002 C.ar    1  LIG1       -0.0237
      2 C          -0.7020   -1.7080   -0.0002 C.ar    1  LIG1       -0.0541
      3 C          -0.1766   -0.3757   -0.0002 C.ar    1  LIG1       -0.0464
      4 C          -1.1831    0.5643    0.0006 C.ar    1  LIG1        0.0259
      5 S          -2.6937   -0.1528    0.0006 S.2     1  LIG1       -0.0961
      6 H          -2.8374   -2.7640   -0.0008 H       1  LIG1        0.0693
      7 H           0.0503   -2.7682   -0.0004 H       1  LIG1        0.0623
      8 H           1.0969   -0.1143   -0.0009 H       1  LIG1        0.0629
      9 C          -1.0166    1.8536    0.0014 C.ar    1  LIG1        0.0266
     10 C           0.1958    2.5069    0.0015 C.ar    1  LIG1       -0.0457
     11 C           0.0263    3.9290    0.0017 C.ar    1  LIG1       -0.0432
     12 C          -1.3057    4.2790    0.0026 C.ar    1  LIG1        0.0604
     13 S          -2.2953    2.9311    0.0023 S.2     1  LIG1       -0.0845
     14 H           1.3610    1.9305    0.0013 H       1  LIG1        0.0629
     15 H           1.0233    4.7632    0.0012 H       1  LIG1        0.0630
     16 C          -1.7708    5.4930    0.0035 C.ar    1  LIG1        0.2099
     17 N          -3.1253    5.6261    0.0040 N.ar    1  LIG1       -0.1247
     18 C          -2.7350    8.0103    0.0056 C.ar    1  LIG1        0.2099
     19 N          -0.8517    6.4971    0.0040 N.ar    1  LIG1       -0.1247
     20 N          -3.5917    6.8924    0.0050 N.ar    1  LIG1       -0.1247
     21 N          -1.3508    7.7509    0.0051 N.ar    1  LIG1       -0.1247
     22 C          -3.2001    9.2243    0.0065 C.ar    1  LIG1        0.0598
     23 C          -4.5321    9.5742    0.0073 C.ar    1  LIG1       -0.0438
     24 C          -4.7018   10.9962    0.0090 C.ar    1  LIG1       -0.0540
     25 C          -3.4895   11.6497    0.0087 C.ar    1  LIG1       -0.0236
     26 S          -2.2106   10.5724    0.0071 S.2     1  LIG1       -0.0934
     27 H          -3.3230   12.9390    0.0095 H       1  LIG1        0.0693
     28 H          -5.5290    8.7399    0.0067 H       1  LIG1        0.0630
     29 H          -5.8670   11.5725    0.0107 H       1  LIG1        0.0623
@<TRIPOS>BOND
     1     8     3    1
     2     6     1    1
     3     7     2    1
     4     2     3   ar
     5     2     1   ar
     6     3     4   ar
     7     1     5   ar
     8     4     5   ar
     9     4     9    1
    10    15    11    1
    11    14    10    1
    12     9    10   ar
    13     9    13   ar
    14    10    11   ar
    15    11    12   ar
    16    13    12   ar
    17    12    16    1
    18    16    17   ar
    19    16    19   ar
    20    17    20   ar
    21    19    21   ar
    22    20    18   ar
    23    21    18   ar
    24    18    22    1
    25    22    26   ar
    26    22    23   ar
    27    28    23    1
    28    26    25   ar
    29    23    24   ar
    30    25    24   ar
    31    25    27    1
    32    24    29    1
