@<TRIPOS>MOLECULE
mol_data/noopt/geoms/mol2/558-4-.out
 32 35 0 0 0
SMALL
GASTEIGER

@<TRIPOS>ATOM
      1 C          -2.0792   -1.7080   -0.0002 C.ar    1  LIG1       -0.0237
      2 C          -0.7020   -1.7080   -0.0002 C.ar    1  LIG1       -0.0541
      3 C          -0.1766   -0.3757   -0.0002 C.ar    1  LIG1       -0.0464
      4 C          -1.1831    0.5643    0.0006 C.ar    1  LIG1        0.0259
      5 S          -2.6937   -0.1528    0.0006 S.2     1  LIG1       -0.0961
      6 H          -2.8374   -2.7640   -0.0008 H       1  LIG1        0.0693
      7 H           0.0503   -2.7682   -0.0004 H       1  LIG1        0.0623
      8 H           1.0969   -0.1143   -0.0009 H       1  LIG1        0.0629
      9 C          -1.0166    1.8536    0.0014 C.ar    1  LIG1        0.0266
     10 C           0.1958    2.5069    0.0015 C.ar    1  LIG1       -0.0457
     11 C           0.0263    3.9290    0.0017 C.ar    1  LIG1       -0.0432
     12 C          -1.3057    4.2790    0.0026 C.ar    1  LIG1        0.0604
     13 S          -2.2953    2.9311    0.0023 S.2     1  LIG1       -0.0845
     14 H           1.3610    1.9305    0.0013 H       1  LIG1        0.0629
     15 H           1.0233    4.7632    0.0012 H       1  LIG1        0.0630
     16 C          -1.7708    5.4930    0.0035 C.ar    1  LIG1        0.2099
     17 N          -3.1253    5.6261    0.0040 N.ar    1  LIG1       -0.1247
     18 C          -2.7350    8.0103    0.0056 C.ar    1  LIG1        0.2034
     19 N          -0.8517    6.4971    0.0040 N.ar    1  LIG1       -0.1247
     20 N          -3.5917    6.8924    0.0050 N.ar    1  LIG1       -0.1252
     21 N          -1.3508    7.7509    0.0051 N.ar    1  LIG1       -0.1252
     22 C          -4.5929    9.4429    0.0063 C.ar    1  LIG1       -0.0509
     23 C          -5.0462   10.7762    0.0059 C.ar    1  LIG1       -0.0611
     24 C          -3.2000    9.2242    0.0065 C.ar    1  LIG1        0.0226
     25 C          -4.1540   11.8461    0.0062 C.ar    1  LIG1       -0.0617
     26 H          -6.1170   10.9675    0.0055 H       1  LIG1        0.0618
     27 C          -2.3089   10.2919    0.0069 C.ar    1  LIG1       -0.0509
     28 C          -2.7788   11.6094    0.0069 C.ar    1  LIG1       -0.0611
     29 H          -1.2394   10.0974    0.0070 H       1  LIG1        0.0625
     30 H          -4.6073   13.0645    0.0059 H       1  LIG1        0.0618
     31 H          -5.4736    8.4867    0.0062 H       1  LIG1        0.0625
     32 H          -1.9411   12.6035    0.0070 H       1  LIG1        0.0618
@<TRIPOS>BOND
     1     8     3    1
     2     6     1    1
     3     7     2    1
     4     2     3   ar
     5     2     1   ar
     6     3     4   ar
     7     1     5   ar
     8     4     5   ar
     9     4     9    1
    10    15    11    1
    11    14    10    1
    12     9    10   ar
    13     9    13   ar
    14    10    11   ar
    15    11    12   ar
    16    13    12   ar
    17    12    16    1
    18    16    19   ar
    19    16    17   ar
    20    19    21   ar
    21    17    20   ar
    22    20    18   ar
    23    21    18   ar
    24    26    23    1
    25    18    24    1
    26    23    25   ar
    27    23    22   ar
    28    30    25    1
    29    31    22    1
    30    25    28   ar
    31    22    24   ar
    32    24    27   ar
    33    28    27   ar
    34    28    32    1
    35    27    29    1
