@<TRIPOS>MOLECULE
mol_data/noopt/geoms/mol2/58-.out
 15 16 0 0 0
SMALL
GASTEIGER

@<TRIPOS>ATOM
      1 C          -2.0792   -1.7080   -0.0002 C.ar    1  LIG1       -0.0236
      2 C          -0.7020   -1.7080   -0.0002 C.ar    1  LIG1       -0.0540
      3 C          -0.1766   -0.3757   -0.0002 C.ar    1  LIG1       -0.0438
      4 C          -1.1831    0.5643    0.0006 C.ar    1  LIG1        0.0598
      5 S          -2.6937   -0.1528    0.0006 S.2     1  LIG1       -0.0934
      6 H          -2.8374   -2.7640   -0.0008 H       1  LIG1        0.0693
      7 H           0.0503   -2.7682   -0.0004 H       1  LIG1        0.0623
      8 H           1.0969   -0.1143   -0.0009 H       1  LIG1        0.0630
      9 C          -1.0166    1.8536    0.0014 C.ar    1  LIG1        0.2098
     10 N          -2.1459    2.6133    0.0018 N.ar    1  LIG1       -0.1253
     11 C          -0.6713    4.5271    0.0031 C.ar    1  LIG1        0.1605
     12 N           0.2688    2.3015    0.0018 N.ar    1  LIG1       -0.1253
     13 N          -1.9557    3.9493    0.0026 N.ar    1  LIG1       -0.1339
     14 N           0.4242    3.6420    0.0027 N.ar    1  LIG1       -0.1339
     15 H          -0.5048    5.8164    0.0039 H       1  LIG1        0.1085
@<TRIPOS>BOND
     1     8     3    1
     2     6     1    1
     3     7     2    1
     4     1     2   ar
     5     1     5   ar
     6     2     3   ar
     7     3     4   ar
     8     4     5   ar
     9     4     9    1
    10     9    10   ar
    11     9    12   ar
    12    10    13   ar
    13    12    14   ar
    14    13    11   ar
    15    14    11   ar
    16    11    15    1
