@<TRIPOS>MOLECULE
mol_data/noopt/geoms/mol2/58-13-8.out
 29 32 0 0 0
SMALL
GASTEIGER

@<TRIPOS>ATOM
      1 C          -2.0792   -1.7080   -0.0002 C.ar    1  LIG1       -0.0236
      2 C          -0.7020   -1.7080   -0.0002 C.ar    1  LIG1       -0.0540
      3 C          -0.1766   -0.3757   -0.0002 C.ar    1  LIG1       -0.0438
      4 C          -1.1831    0.5643    0.0006 C.ar    1  LIG1        0.0598
      5 S          -2.6937   -0.1528    0.0006 S.2     1  LIG1       -0.0934
      6 H          -2.8374   -2.7640   -0.0008 H       1  LIG1        0.0693
      7 H           0.0503   -2.7682   -0.0004 H       1  LIG1        0.0623
      8 H           1.0969   -0.1143   -0.0009 H       1  LIG1        0.0630
      9 C          -1.0166    1.8536    0.0014 C.ar    1  LIG1        0.2099
     10 N          -2.1459    2.6133    0.0018 N.ar    1  LIG1       -0.1246
     11 C          -0.6713    4.5271    0.0031 C.ar    1  LIG1        0.2194
     12 N           0.2688    2.3015    0.0018 N.ar    1  LIG1       -0.1246
     13 N          -1.9557    3.9493    0.0026 N.ar    1  LIG1       -0.1237
     14 N           0.4242    3.6420    0.0027 N.ar    1  LIG1       -0.1237
     15 C          -0.5048    5.8164    0.0039 C.ar    1  LIG1        0.0880
     16 C          -1.4177    6.8235    0.0049 C.ar    1  LIG1       -0.0325
     17 C          -0.6924    8.0583    0.0043 C.ar    1  LIG1       -0.0325
     18 C           0.6319    7.7513    0.0047 C.ar    1  LIG1        0.0880
     19 N           0.7513    6.3798    0.0040 N.ar    1  LIG1       -0.3491
     20 H           1.6083    5.8763    0.0042 H       1  LIG1        0.1661
     21 H          -2.7105    6.6870    0.0048 H       1  LIG1        0.0640
     22 H          -1.2026    9.2540    0.0040 H       1  LIG1        0.0640
     23 C           1.6770    8.5245    0.0046 C.ar    1  LIG1        0.2193
     24 N           2.8905    7.9079    0.0045 N.ar    1  LIG1       -0.1243
     25 C           3.8441   10.1277    0.0044 C.ar    1  LIG1        0.1605
     26 N           1.4424    9.8653    0.0045 N.ar    1  LIG1       -0.1243
     27 N           3.9648    8.7245    0.0044 N.ar    1  LIG1       -0.1338
     28 N           2.5377   10.6537    0.0043 N.ar    1  LIG1       -0.1338
     29 H           4.8892   10.9009    0.0042 H       1  LIG1        0.1085
@<TRIPOS>BOND
     1     8     3    1
     2     6     1    1
     3     7     2    1
     4     2     3   ar
     5     2     1   ar
     6     3     4   ar
     7     1     5   ar
     8     4     5   ar
     9     4     9    1
    10     9    10   ar
    11     9    12   ar
    12    10    13   ar
    13    12    14   ar
    14    13    11   ar
    15    14    11   ar
    16    11    15    1
    17    15    19   ar
    18    15    16   ar
    19    19    20    1
    20    19    18   ar
    21    22    17    1
    22    29    25    1
    23    28    25   ar
    24    28    26   ar
    25    17    18   ar
    26    17    16   ar
    27    25    27   ar
    28    27    24   ar
    29    24    23   ar
    30    26    23   ar
    31    23    18    1
    32    21    16    1
