@<TRIPOS>MOLECULE
mol_data/noopt/geoms/mol2/58-134-.out
 33 36 0 0 0
SMALL
GASTEIGER

@<TRIPOS>ATOM
      1 C          -2.0792   -1.7080   -0.0002 C.ar    1  LIG1       -0.0236
      2 C          -0.7020   -1.7080   -0.0002 C.ar    1  LIG1       -0.0540
      3 C          -0.1766   -0.3757   -0.0002 C.ar    1  LIG1       -0.0438
      4 C          -1.1831    0.5643    0.0006 C.ar    1  LIG1        0.0598
      5 S          -2.6937   -0.1528    0.0006 S.2     1  LIG1       -0.0934
      6 H          -2.8374   -2.7640   -0.0008 H       1  LIG1        0.0693
      7 H           0.0503   -2.7682   -0.0004 H       1  LIG1        0.0623
      8 H           1.0969   -0.1143   -0.0009 H       1  LIG1        0.0630
      9 C          -1.0166    1.8536    0.0014 C.ar    1  LIG1        0.2099
     10 N          -2.1459    2.6133    0.0018 N.ar    1  LIG1       -0.1246
     11 C          -0.6713    4.5271    0.0031 C.ar    1  LIG1        0.2194
     12 N           0.2688    2.3015    0.0018 N.ar    1  LIG1       -0.1246
     13 N          -1.9557    3.9493    0.0026 N.ar    1  LIG1       -0.1237
     14 N           0.4242    3.6420    0.0027 N.ar    1  LIG1       -0.1237
     15 C          -0.5048    5.8164    0.0039 C.ar    1  LIG1        0.0879
     16 C           0.6341    6.5586    0.0040 C.ar    1  LIG1       -0.0326
     17 C           0.2463    7.9370    0.0062 C.ar    1  LIG1       -0.0357
     18 C          -1.1126    7.9766    0.0054 C.ar    1  LIG1        0.0470
     19 N          -1.5764    6.6804    0.0045 N.ar    1  LIG1       -0.3516
     20 H          -2.5333    6.4112    0.0037 H       1  LIG1        0.1660
     21 H           1.8499    6.0981    0.0039 H       1  LIG1        0.0640
     22 H           1.0435    8.9639    0.0080 H       1  LIG1        0.0639
     23 C          -3.3198    8.7715    0.0064 C.ar    1  LIG1       -0.0526
     24 C          -4.1596    9.9020    0.0060 C.ar    1  LIG1       -0.0611
     25 C          -1.9269    8.9898    0.0065 C.ar    1  LIG1       -0.0017
     26 C          -3.6379   11.1937    0.0065 C.ar    1  LIG1       -0.0617
     27 H          -5.2376    9.7563    0.0057 H       1  LIG1        0.0618
     28 C          -1.4055   10.2791    0.0070 C.ar    1  LIG1       -0.0526
     29 C          -2.2562   11.3894    0.0070 C.ar    1  LIG1       -0.0611
     30 H          -0.3278   10.4213    0.0070 H       1  LIG1        0.0624
     31 H          -4.4424   12.2148    0.0063 H       1  LIG1        0.0618
     32 H          -3.8655    7.5916    0.0062 H       1  LIG1        0.0624
     33 H          -1.7631   12.5922    0.0073 H       1  LIG1        0.0618
@<TRIPOS>BOND
     1     8     3    1
     2     6     1    1
     3     7     2    1
     4     2     3   ar
     5     2     1   ar
     6     3     4   ar
     7     1     5   ar
     8     4     5   ar
     9     4     9    1
    10     9    10   ar
    11     9    12   ar
    12    10    13   ar
    13    12    14   ar
    14    13    11   ar
    15    14    11   ar
    16    11    15    1
    17    20    19    1
    18    15    16   ar
    19    15    19   ar
    20    21    16    1
    21    16    17   ar
    22    19    18   ar
    23    18    17   ar
    24    18    25    1
    25    27    24    1
    26    24    23   ar
    27    24    26   ar
    28    17    22    1
    29    32    23    1
    30    31    26    1
    31    23    25   ar
    32    26    29   ar
    33    25    28   ar
    34    28    30    1
    35    28    29   ar
    36    29    33    1
