@<TRIPOS>MOLECULE
mol_data/noopt/geoms/mol2/58-4.out
 25 27 0 0 0
SMALL
GASTEIGER

@<TRIPOS>ATOM
      1 C          -2.0792   -1.7080   -0.0002 C.ar    1  LIG1       -0.0236
      2 C          -0.7020   -1.7080   -0.0002 C.ar    1  LIG1       -0.0540
      3 C          -0.1766   -0.3757   -0.0002 C.ar    1  LIG1       -0.0438
      4 C          -1.1831    0.5643    0.0006 C.ar    1  LIG1        0.0598
      5 S          -2.6937   -0.1528    0.0006 S.2     1  LIG1       -0.0934
      6 H          -2.8374   -2.7640   -0.0008 H       1  LIG1        0.0693
      7 H           0.0503   -2.7682   -0.0004 H       1  LIG1        0.0623
      8 H           1.0969   -0.1143   -0.0009 H       1  LIG1        0.0630
      9 C          -1.0166    1.8536    0.0014 C.ar    1  LIG1        0.2099
     10 N          -2.1459    2.6133    0.0018 N.ar    1  LIG1       -0.1247
     11 C          -0.6713    4.5271    0.0031 C.ar    1  LIG1        0.2034
     12 N           0.2688    2.3015    0.0018 N.ar    1  LIG1       -0.1247
     13 N          -1.9557    3.9493    0.0026 N.ar    1  LIG1       -0.1252
     14 N           0.4242    3.6420    0.0027 N.ar    1  LIG1       -0.1252
     15 C           0.7976    6.3564    0.0050 C.ar    1  LIG1       -0.0509
     16 C           0.9246    7.7590    0.0074 C.ar    1  LIG1       -0.0611
     17 C          -0.5048    5.8163    0.0039 C.ar    1  LIG1        0.0226
     18 C          -0.1941    8.5890    0.0080 C.ar    1  LIG1       -0.0617
     19 H           1.9204    8.1967    0.0086 H       1  LIG1        0.0618
     20 C          -1.6220    6.6445    0.0044 C.ar    1  LIG1       -0.0509
     21 C          -1.4751    8.0355    0.0064 C.ar    1  LIG1       -0.0611
     22 H          -2.6157    6.2038    0.0036 H       1  LIG1        0.0625
     23 H          -0.0402    9.8798    0.0101 H       1  LIG1        0.0618
     24 H           1.8785    5.6342    0.0044 H       1  LIG1        0.0625
     25 H          -2.5231    8.8046    0.0070 H       1  LIG1        0.0618
@<TRIPOS>BOND
     1     8     3    1
     2     6     1    1
     3     7     2    1
     4     2     3   ar
     5     2     1   ar
     6     3     4   ar
     7     1     5   ar
     8     4     5   ar
     9     4     9    1
    10     9    10   ar
    11     9    12   ar
    12    10    13   ar
    13    12    14   ar
    14    13    11   ar
    15    14    11   ar
    16    11    17    1
    17    22    20    1
    18    17    20   ar
    19    17    15   ar
    20    24    15    1
    21    20    21   ar
    22    15    16   ar
    23    21    25    1
    24    21    18   ar
    25    16    18   ar
    26    16    19    1
    27    18    23    1
