@<TRIPOS>MOLECULE
mol_data/noopt/geoms/mol2/58-4-5.out
 32 35 0 0 0
SMALL
GASTEIGER

@<TRIPOS>ATOM
      1 C          -2.0792   -1.7080   -0.0002 C.ar    1  LIG1       -0.0236
      2 C          -0.7020   -1.7080   -0.0002 C.ar    1  LIG1       -0.0540
      3 C          -0.1766   -0.3757   -0.0002 C.ar    1  LIG1       -0.0438
      4 C          -1.1831    0.5643    0.0006 C.ar    1  LIG1        0.0598
      5 S          -2.6937   -0.1528    0.0006 S.2     1  LIG1       -0.0934
      6 H          -2.8374   -2.7640   -0.0008 H       1  LIG1        0.0693
      7 H           0.0503   -2.7682   -0.0004 H       1  LIG1        0.0623
      8 H           1.0969   -0.1143   -0.0009 H       1  LIG1        0.0630
      9 C          -1.0166    1.8536    0.0014 C.ar    1  LIG1        0.2099
     10 N          -2.1459    2.6133    0.0018 N.ar    1  LIG1       -0.1247
     11 C          -0.6713    4.5271    0.0031 C.ar    1  LIG1        0.2034
     12 N           0.2688    2.3015    0.0018 N.ar    1  LIG1       -0.1247
     13 N          -1.9557    3.9493    0.0026 N.ar    1  LIG1       -0.1252
     14 N           0.4242    3.6420    0.0027 N.ar    1  LIG1       -0.1252
     15 C          -1.6272    6.6695    0.0035 C.ar    1  LIG1       -0.0503
     16 C          -1.3937    8.0584    0.0029 C.ar    1  LIG1       -0.0529
     17 C          -0.5048    5.8163    0.0039 C.ar    1  LIG1        0.0227
     18 C          -0.1008    8.5769    0.0032 C.ar    1  LIG1       -0.0113
     19 H          -2.2456    8.7347    0.0024 H       1  LIG1        0.0624
     20 C           0.7862    6.3335    0.0041 C.ar    1  LIG1       -0.0503
     21 C           0.9975    7.7162    0.0039 C.ar    1  LIG1       -0.0529
     22 H           1.6354    5.6548    0.0043 H       1  LIG1        0.0625
     23 H          -2.8561    6.2456    0.0035 H       1  LIG1        0.0625
     24 H           2.2066    8.1939    0.0040 H       1  LIG1        0.0624
     25 C           0.0782    9.8645    0.0027 C.ar    1  LIG1        0.0193
     26 C           1.2968   10.5061    0.0020 C.ar    1  LIG1       -0.0469
     27 C           1.1411   11.9297    0.0008 C.ar    1  LIG1       -0.0541
     28 C          -0.1874   12.2927    0.0015 C.ar    1  LIG1       -0.0237
     29 S          -1.1900   10.9544    0.0027 S.2     1  LIG1       -0.0967
     30 H          -0.6406   13.5111    0.0013 H       1  LIG1        0.0693
     31 H           2.4564    9.9184    0.0021 H       1  LIG1        0.0629
     32 H           2.1462   12.7542   -0.0007 H       1  LIG1        0.0623
@<TRIPOS>BOND
     1     8     3    1
     2     6     1    1
     3    32    27    1
     4     7     2    1
     5     1     2   ar
     6     1     5   ar
     7     2     3   ar
     8     3     4   ar
     9     5     4   ar
    10     4     9    1
    11    27    28   ar
    12    27    26   ar
    13    30    28    1
    14     9    10   ar
    15     9    12   ar
    16    28    29   ar
    17    10    13   ar
    18    12    14   ar
    19    26    31    1
    20    26    25   ar
    21    19    16    1
    22    13    11   ar
    23    25    29   ar
    24    25    18    1
    25    14    11   ar
    26    16    18   ar
    27    16    15   ar
    28    11    17    1
    29    18    21   ar
    30    23    15    1
    31    15    17   ar
    32    17    20   ar
    33    21    24    1
    34    21    20   ar
    35    20    22    1
