@<TRIPOS>MOLECULE
mol_data/noopt/geoms/mol2/58-54-.out
 32 35 0 0 0
SMALL
GASTEIGER

@<TRIPOS>ATOM
      1 C          -2.0792   -1.7080   -0.0002 C.ar    1  LIG1       -0.0236
      2 C          -0.7020   -1.7080   -0.0002 C.ar    1  LIG1       -0.0540
      3 C          -0.1766   -0.3757   -0.0002 C.ar    1  LIG1       -0.0438
      4 C          -1.1831    0.5643    0.0006 C.ar    1  LIG1        0.0598
      5 S          -2.6937   -0.1528    0.0006 S.2     1  LIG1       -0.0934
      6 H          -2.8374   -2.7640   -0.0008 H       1  LIG1        0.0693
      7 H           0.0503   -2.7682   -0.0004 H       1  LIG1        0.0623
      8 H           1.0969   -0.1143   -0.0009 H       1  LIG1        0.0630
      9 C          -1.0166    1.8536    0.0014 C.ar    1  LIG1        0.2099
     10 N          -2.1459    2.6133    0.0018 N.ar    1  LIG1       -0.1247
     11 C          -0.6713    4.5271    0.0031 C.ar    1  LIG1        0.2099
     12 N           0.2688    2.3015    0.0018 N.ar    1  LIG1       -0.1247
     13 N          -1.9557    3.9493    0.0026 N.ar    1  LIG1       -0.1247
     14 N           0.4242    3.6420    0.0027 N.ar    1  LIG1       -0.1247
     15 C          -0.5048    5.8163    0.0039 C.ar    1  LIG1        0.0604
     16 C           0.7076    6.4697    0.0040 C.ar    1  LIG1       -0.0432
     17 C           0.5381    7.8918    0.0042 C.ar    1  LIG1       -0.0462
     18 C          -0.7939    8.2418    0.0050 C.ar    1  LIG1        0.0200
     19 S          -1.7835    6.8939    0.0048 S.2     1  LIG1       -0.0850
     20 H           1.8728    5.8932    0.0037 H       1  LIG1        0.0630
     21 H           1.5351    8.7260    0.0036 H       1  LIG1        0.0629
     22 C          -2.6517    9.6744    0.0058 C.ar    1  LIG1       -0.0535
     23 C          -3.1051   11.0077    0.0053 C.ar    1  LIG1       -0.0612
     24 C          -1.2589    9.4557    0.0060 C.ar    1  LIG1       -0.0113
     25 C          -2.2129   12.0776    0.0057 C.ar    1  LIG1       -0.0617
     26 H          -4.1759   11.1990    0.0049 H       1  LIG1        0.0618
     27 C          -0.3678   10.5234    0.0064 C.ar    1  LIG1       -0.0535
     28 C          -0.8377   11.8409    0.0063 C.ar    1  LIG1       -0.0612
     29 H           0.7017   10.3288    0.0064 H       1  LIG1        0.0624
     30 H          -2.6662   13.2960    0.0054 H       1  LIG1        0.0618
     31 H          -3.5325    8.7182    0.0057 H       1  LIG1        0.0624
     32 H           0.0000   12.8349    0.0065 H       1  LIG1        0.0618
@<TRIPOS>BOND
     1     8     3    1
     2     6     1    1
     3     7     2    1
     4     2     3   ar
     5     2     1   ar
     6     3     4   ar
     7     1     5   ar
     8     4     5   ar
     9     4     9    1
    10     9    10   ar
    11     9    12   ar
    12    10    13   ar
    13    12    14   ar
    14    13    11   ar
    15    14    11   ar
    16    11    15    1
    17    21    17    1
    18    20    16    1
    19    15    16   ar
    20    15    19   ar
    21    16    17   ar
    22    17    18   ar
    23    19    18   ar
    24    26    23    1
    25    18    24    1
    26    23    25   ar
    27    23    22   ar
    28    30    25    1
    29    31    22    1
    30    25    28   ar
    31    22    24   ar
    32    24    27   ar
    33    28    27   ar
    34    28    32    1
    35    27    29    1
