@<TRIPOS>MOLECULE
mol_data/noopt/geoms/mol2/58-58-.out
 28 31 0 0 0
SMALL
GASTEIGER

@<TRIPOS>ATOM
      1 C          -2.0792   -1.7080   -0.0002 C.ar    1  LIG1       -0.0236
      2 C          -0.7020   -1.7080   -0.0002 C.ar    1  LIG1       -0.0540
      3 C          -0.1766   -0.3757   -0.0002 C.ar    1  LIG1       -0.0438
      4 C          -1.1831    0.5643    0.0006 C.ar    1  LIG1        0.0598
      5 S          -2.6937   -0.1528    0.0006 S.2     1  LIG1       -0.0934
      6 H          -2.8374   -2.7640   -0.0008 H       1  LIG1        0.0693
      7 H           0.0503   -2.7682   -0.0004 H       1  LIG1        0.0623
      8 H           1.0969   -0.1143   -0.0009 H       1  LIG1        0.0630
      9 C          -1.0166    1.8536    0.0014 C.ar    1  LIG1        0.2099
     10 N          -2.1459    2.6133    0.0018 N.ar    1  LIG1       -0.1247
     11 C          -0.6713    4.5271    0.0031 C.ar    1  LIG1        0.2099
     12 N           0.2688    2.3015    0.0018 N.ar    1  LIG1       -0.1247
     13 N          -1.9557    3.9493    0.0026 N.ar    1  LIG1       -0.1247
     14 N           0.4242    3.6420    0.0027 N.ar    1  LIG1       -0.1247
     15 C          -0.5048    5.8163    0.0039 C.ar    1  LIG1        0.0605
     16 C           0.7076    6.4697    0.0040 C.ar    1  LIG1       -0.0431
     17 C           0.5381    7.8918    0.0042 C.ar    1  LIG1       -0.0431
     18 C          -0.7939    8.2418    0.0050 C.ar    1  LIG1        0.0605
     19 S          -1.7835    6.8939    0.0048 S.2     1  LIG1       -0.0818
     20 H           1.8728    5.8932    0.0037 H       1  LIG1        0.0630
     21 H           1.5351    8.7260    0.0036 H       1  LIG1        0.0630
     22 C          -1.2589    9.4558    0.0060 C.ar    1  LIG1        0.2099
     23 N          -2.6135    9.5888    0.0065 N.ar    1  LIG1       -0.1253
     24 C          -2.2232   11.9731    0.0080 C.ar    1  LIG1        0.1605
     25 N          -0.3399   10.4598    0.0065 N.ar    1  LIG1       -0.1253
     26 N          -3.0798   10.8552    0.0075 N.ar    1  LIG1       -0.1339
     27 N          -0.8390   11.7136    0.0076 N.ar    1  LIG1       -0.1339
     28 H          -2.6882   13.1871    0.0090 H       1  LIG1        0.1085
@<TRIPOS>BOND
     1     8     3    1
     2     6     1    1
     3     7     2    1
     4     2     3   ar
     5     2     1   ar
     6     3     4   ar
     7     1     5   ar
     8     4     5   ar
     9     4     9    1
    10     9    10   ar
    11     9    12   ar
    12    10    13   ar
    13    12    14   ar
    14    13    11   ar
    15    14    11   ar
    16    11    15    1
    17    21    17    1
    18    20    16    1
    19    15    16   ar
    20    15    19   ar
    21    16    17   ar
    22    17    18   ar
    23    19    18   ar
    24    18    22    1
    25    22    23   ar
    26    22    25   ar
    27    23    26   ar
    28    25    27   ar
    29    26    24   ar
    30    27    24   ar
    31    24    28    1
