@<TRIPOS>MOLECULE
mol_data/noopt/geoms/mol2/58-8-13-.out
 29 32 0 0 0
SMALL
GASTEIGER

@<TRIPOS>ATOM
      1 C          -2.0792   -1.7080   -0.0002 C.ar    1  LIG1       -0.0236
      2 C          -0.7020   -1.7080   -0.0002 C.ar    1  LIG1       -0.0540
      3 C          -0.1766   -0.3757   -0.0002 C.ar    1  LIG1       -0.0438
      4 C          -1.1831    0.5643    0.0006 C.ar    1  LIG1        0.0598
      5 S          -2.6937   -0.1528    0.0006 S.2     1  LIG1       -0.0934
      6 H          -2.8374   -2.7640   -0.0008 H       1  LIG1        0.0693
      7 H           0.0503   -2.7682   -0.0004 H       1  LIG1        0.0623
      8 H           1.0969   -0.1143   -0.0009 H       1  LIG1        0.0630
      9 C          -1.0166    1.8536    0.0014 C.ar    1  LIG1        0.2099
     10 N          -2.1459    2.6133    0.0018 N.ar    1  LIG1       -0.1246
     11 C          -0.6713    4.5271    0.0031 C.ar    1  LIG1        0.2435
     12 N           0.2688    2.3015    0.0018 N.ar    1  LIG1       -0.1246
     13 N          -1.9557    3.9493    0.0026 N.ar    1  LIG1       -0.1218
     14 N           0.4242    3.6420    0.0027 N.ar    1  LIG1       -0.1218
     15 C          -0.5048    5.8164    0.0039 C.ar    1  LIG1        0.2435
     16 N          -1.6341    6.5761    0.0042 N.ar    1  LIG1       -0.1218
     17 C          -0.1594    8.4898    0.0055 C.ar    1  LIG1        0.2194
     18 N           0.7806    6.2643    0.0042 N.ar    1  LIG1       -0.1218
     19 N          -1.4439    7.9121    0.0051 N.ar    1  LIG1       -0.1236
     20 N           0.9360    7.6048    0.0052 N.ar    1  LIG1       -0.1236
     21 C           0.0071    9.7791    0.0063 C.ar    1  LIG1        0.0875
     22 C          -0.9059   10.7863    0.0074 C.ar    1  LIG1       -0.0333
     23 C          -0.1806   12.0210    0.0068 C.ar    1  LIG1       -0.0437
     24 C           1.1438   11.7141    0.0072 C.ar    1  LIG1        0.0023
     25 N           1.2631   10.3426    0.0064 N.ar    1  LIG1       -0.3582
     26 H           2.1202    9.8391    0.0066 H       1  LIG1        0.1654
     27 H           2.1889   12.4872    0.0071 H       1  LIG1        0.0807
     28 H          -2.1987   10.6498    0.0073 H       1  LIG1        0.0640
     29 H          -0.6908   13.2167    0.0064 H       1  LIG1        0.0633
@<TRIPOS>BOND
     1     8     3    1
     2     6     1    1
     3     7     2    1
     4     2     3   ar
     5     2     1   ar
     6     3     4   ar
     7     1     5   ar
     8     4     5   ar
     9     4     9    1
    10     9    10   ar
    11     9    12   ar
    12    10    13   ar
    13    12    14   ar
    14    13    11   ar
    15    14    11   ar
    16    11    15    1
    17    15    16   ar
    18    15    18   ar
    19    16    19   ar
    20    18    20   ar
    21    19    17   ar
    22    20    17   ar
    23    17    21    1
    24    21    25   ar
    25    21    22   ar
    26    25    26    1
    27    25    24   ar
    28    29    23    1
    29    23    24   ar
    30    23    22   ar
    31    27    24    1
    32    28    22    1
