@<TRIPOS>MOLECULE
mol_data/noopt/geoms/mol2/5812-5-.out
 29 32 0 0 0
SMALL
GASTEIGER

@<TRIPOS>ATOM
      1 C          -2.0792   -1.7080   -0.0002 C.ar    1  LIG1       -0.0236
      2 C          -0.7020   -1.7080   -0.0002 C.ar    1  LIG1       -0.0540
      3 C          -0.1766   -0.3757   -0.0002 C.ar    1  LIG1       -0.0438
      4 C          -1.1831    0.5643    0.0006 C.ar    1  LIG1        0.0598
      5 S          -2.6937   -0.1528    0.0006 S.2     1  LIG1       -0.0934
      6 H          -2.8374   -2.7640   -0.0008 H       1  LIG1        0.0693
      7 H           0.0503   -2.7682   -0.0004 H       1  LIG1        0.0623
      8 H           1.0969   -0.1143   -0.0009 H       1  LIG1        0.0630
      9 C          -1.0166    1.8536    0.0014 C.ar    1  LIG1        0.2099
     10 N           0.2687    2.3015    0.0018 N.ar    1  LIG1       -0.1246
     11 C          -0.6714    4.5271    0.0031 C.ar    1  LIG1        0.2381
     12 N          -2.1460    2.6134    0.0018 N.ar    1  LIG1       -0.1246
     13 N           0.4241    3.6420    0.0026 N.ar    1  LIG1       -0.1220
     14 N          -1.9558    3.9494    0.0025 N.ar    1  LIG1       -0.1220
     15 C          -0.5050    5.8164    0.0039 C.ar    1  LIG1        0.1760
     16 C          -1.3385    6.9156    0.0045 C.ar    1  LIG1       -0.0120
     17 C          -0.4837    8.0844    0.0053 C.ar    1  LIG1       -0.0146
     18 C           0.8162    7.6217    0.0051 C.ar    1  LIG1        0.1424
     19 O           0.8290    6.2264    0.0044 O.2     1  LIG1       -0.4511
     20 H          -2.6384    6.9284    0.0043 H       1  LIG1        0.0657
     21 H          -0.8891    9.3195    0.0060 H       1  LIG1        0.0656
     22 C           1.9947    8.1704    0.0055 C.ar    1  LIG1        0.0544
     23 C           2.2507    9.5236    0.0059 C.ar    1  LIG1       -0.0440
     24 C           3.6574    9.7922    0.0071 C.ar    1  LIG1       -0.0540
     25 C           4.3940    8.6285    0.0067 C.ar    1  LIG1       -0.0236
     26 S           3.4086    7.2775    0.0057 S.2     1  LIG1       -0.0936
     27 H           5.6917    8.5524    0.0069 H       1  LIG1        0.0693
     28 H           1.3488   10.4598    0.0055 H       1  LIG1        0.0630
     29 H           4.1509   10.9948    0.0083 H       1  LIG1        0.0623
@<TRIPOS>BOND
     1     8     3    1
     2     6     1    1
     3     7     2    1
     4     2     3   ar
     5     2     1   ar
     6     3     4   ar
     7     1     5   ar
     8     4     5   ar
     9     4     9    1
    10     9    10   ar
    11     9    12   ar
    12    10    13   ar
    13    12    14   ar
    14    14    11   ar
    15    13    11   ar
    16    11    15    1
    17    15    19   ar
    18    15    16   ar
    19    20    16    1
    20    19    18   ar
    21    16    17   ar
    22    18    17   ar
    23    18    22    1
    24    17    21    1
    25    28    23    1
    26    22    26   ar
    27    22    23   ar
    28    26    25   ar
    29    23    24   ar
    30    25    27    1
    31    25    24   ar
    32    24    29    1
