@<TRIPOS>MOLECULE
mol_data/noopt/geoms/mol2/5812-8.out
 28 31 0 0 0
SMALL
GASTEIGER

@<TRIPOS>ATOM
      1 C          -2.0792   -1.7080   -0.0002 C.ar    1  LIG1       -0.0236
      2 C          -0.7020   -1.7080   -0.0002 C.ar    1  LIG1       -0.0540
      3 C          -0.1766   -0.3757   -0.0002 C.ar    1  LIG1       -0.0438
      4 C          -1.1831    0.5643    0.0006 C.ar    1  LIG1        0.0598
      5 S          -2.6937   -0.1528    0.0006 S.2     1  LIG1       -0.0934
      6 H          -2.8374   -2.7640   -0.0008 H       1  LIG1        0.0693
      7 H           0.0503   -2.7682   -0.0004 H       1  LIG1        0.0623
      8 H           1.0969   -0.1143   -0.0009 H       1  LIG1        0.0630
      9 C          -1.0166    1.8536    0.0014 C.ar    1  LIG1        0.2099
     10 N           0.2687    2.3015    0.0018 N.ar    1  LIG1       -0.1246
     11 C          -0.6714    4.5271    0.0031 C.ar    1  LIG1        0.2381
     12 N          -2.1460    2.6134    0.0018 N.ar    1  LIG1       -0.1246
     13 N           0.4241    3.6420    0.0026 N.ar    1  LIG1       -0.1220
     14 N          -1.9558    3.9494    0.0025 N.ar    1  LIG1       -0.1220
     15 C          -0.5050    5.8164    0.0039 C.ar    1  LIG1        0.1761
     16 C          -1.3385    6.9156    0.0045 C.ar    1  LIG1       -0.0119
     17 C          -0.4837    8.0844    0.0053 C.ar    1  LIG1       -0.0119
     18 C           0.8162    7.6217    0.0051 C.ar    1  LIG1        0.1761
     19 O           0.8290    6.2264    0.0044 O.2     1  LIG1       -0.4483
     20 H          -2.6384    6.9284    0.0043 H       1  LIG1        0.0657
     21 H          -0.8891    9.3195    0.0060 H       1  LIG1        0.0657
     22 C           1.9947    8.1704    0.0055 C.ar    1  LIG1        0.2381
     23 N           3.0604    7.3238    0.0057 N.ar    1  LIG1       -0.1226
     24 C           4.4384    9.3082    0.0064 C.ar    1  LIG1        0.1605
     25 N           2.0328    9.5310    0.0057 N.ar    1  LIG1       -0.1226
     26 N           4.2763    7.9092    0.0062 N.ar    1  LIG1       -0.1338
     27 N           3.2635   10.0846    0.0061 N.ar    1  LIG1       -0.1338
     28 H           5.6170    9.8570    0.0068 H       1  LIG1        0.1085
@<TRIPOS>BOND
     1     8     3    1
     2     6     1    1
     3     7     2    1
     4     2     3   ar
     5     2     1   ar
     6     3     4   ar
     7     1     5   ar
     8     4     5   ar
     9     4     9    1
    10     9    10   ar
    11     9    12   ar
    12    10    13   ar
    13    12    14   ar
    14    14    11   ar
    15    13    11   ar
    16    11    15    1
    17    15    19   ar
    18    15    16   ar
    19    20    16    1
    20    19    18   ar
    21    16    17   ar
    22    18    17   ar
    23    18    22    1
    24    17    21    1
    25    22    23   ar
    26    22    25   ar
    27    23    26   ar
    28    25    27   ar
    29    27    24   ar
    30    26    24   ar
    31    24    28    1
