@<TRIPOS>MOLECULE
mol_data/noopt/geoms/mol2/581313-.out
 31 34 0 0 0
SMALL
GASTEIGER

@<TRIPOS>ATOM
      1 C          -2.0792   -1.7080   -0.0002 C.ar    1  LIG1       -0.0236
      2 C          -0.7020   -1.7080   -0.0002 C.ar    1  LIG1       -0.0540
      3 C          -0.1766   -0.3757   -0.0002 C.ar    1  LIG1       -0.0438
      4 C          -1.1831    0.5643    0.0006 C.ar    1  LIG1        0.0598
      5 S          -2.6937   -0.1528    0.0006 S.2     1  LIG1       -0.0934
      6 H          -2.8374   -2.7640   -0.0008 H       1  LIG1        0.0693
      7 H           0.0503   -2.7682   -0.0004 H       1  LIG1        0.0623
      8 H           1.0969   -0.1143   -0.0009 H       1  LIG1        0.0630
      9 C          -1.0166    1.8536    0.0014 C.ar    1  LIG1        0.2099
     10 N           0.2687    2.3015    0.0018 N.ar    1  LIG1       -0.1246
     11 C          -0.6714    4.5271    0.0031 C.ar    1  LIG1        0.2194
     12 N          -2.1460    2.6134    0.0018 N.ar    1  LIG1       -0.1246
     13 N           0.4241    3.6420    0.0026 N.ar    1  LIG1       -0.1237
     14 N          -1.9558    3.9494    0.0025 N.ar    1  LIG1       -0.1237
     15 C          -0.5049    5.8164    0.0039 C.ar    1  LIG1        0.0880
     16 C           0.6340    6.5586    0.0040 C.ar    1  LIG1       -0.0326
     17 C           0.2461    7.9371    0.0062 C.ar    1  LIG1       -0.0343
     18 C          -1.1128    7.9766    0.0054 C.ar    1  LIG1        0.0634
     19 N          -1.5766    6.6804    0.0045 N.ar    1  LIG1       -0.3505
     20 H          -2.5335    6.4112    0.0037 H       1  LIG1        0.1660
     21 H           1.8497    6.0981    0.0039 H       1  LIG1        0.0640
     22 H           1.0433    8.9639    0.0080 H       1  LIG1        0.0639
     23 C          -1.9272    8.9899    0.0065 C.ar    1  LIG1        0.0629
     24 C          -3.2860    9.0293    0.0078 C.ar    1  LIG1       -0.0350
     25 C          -3.6739   10.4077    0.0075 C.ar    1  LIG1       -0.0438
     26 C          -2.5351   11.1501    0.0079 C.ar    1  LIG1        0.0022
     27 N          -1.4633   10.2860    0.0068 N.ar    1  LIG1       -0.3595
     28 H          -0.5065   10.5553    0.0069 H       1  LIG1        0.1654
     29 H          -2.3686   12.4394    0.0079 H       1  LIG1        0.0807
     30 H          -4.0832    8.0024    0.0076 H       1  LIG1        0.0639
     31 H          -4.8896   10.8682    0.0074 H       1  LIG1        0.0633
@<TRIPOS>BOND
     1     8     3    1
     2     6     1    1
     3     7     2    1
     4     2     3   ar
     5     2     1   ar
     6     3     4   ar
     7     1     5   ar
     8     4     5   ar
     9     4     9    1
    10     9    10   ar
    11     9    12   ar
    12    10    13   ar
    13    12    14   ar
    14    14    11   ar
    15    13    11   ar
    16    11    15    1
    17    20    19    1
    18    15    16   ar
    19    15    19   ar
    20    21    16    1
    21    16    17   ar
    22    19    18   ar
    23    18    17   ar
    24    18    23    1
    25    17    22    1
    26    23    27   ar
    27    23    24   ar
    28    27    28    1
    29    27    26   ar
    30    31    25    1
    31    25    24   ar
    32    25    26   ar
    33    30    24    1
    34    26    29    1
