@<TRIPOS>MOLECULE
mol_data/noopt/geoms/mol2/584-8-.out
 31 34 0 0 0
SMALL
GASTEIGER

@<TRIPOS>ATOM
      1 C          -2.0792   -1.7080   -0.0002 C.ar    1  LIG1       -0.0236
      2 C          -0.7020   -1.7080   -0.0002 C.ar    1  LIG1       -0.0540
      3 C          -0.1766   -0.3757   -0.0002 C.ar    1  LIG1       -0.0438
      4 C          -1.1831    0.5643    0.0006 C.ar    1  LIG1        0.0598
      5 S          -2.6937   -0.1528    0.0006 S.2     1  LIG1       -0.0934
      6 H          -2.8374   -2.7640   -0.0008 H       1  LIG1        0.0693
      7 H           0.0503   -2.7682   -0.0004 H       1  LIG1        0.0623
      8 H           1.0969   -0.1143   -0.0009 H       1  LIG1        0.0630
      9 C          -1.0166    1.8536    0.0014 C.ar    1  LIG1        0.2099
     10 N           0.2687    2.3015    0.0018 N.ar    1  LIG1       -0.1247
     11 C          -0.6714    4.5271    0.0031 C.ar    1  LIG1        0.2034
     12 N          -2.1460    2.6134    0.0018 N.ar    1  LIG1       -0.1247
     13 N           0.4241    3.6420    0.0026 N.ar    1  LIG1       -0.1252
     14 N          -1.9558    3.9494    0.0025 N.ar    1  LIG1       -0.1252
     15 C          -1.6274    6.6696    0.0035 C.ar    1  LIG1       -0.0503
     16 C          -1.3939    8.0584    0.0029 C.ar    1  LIG1       -0.0503
     17 C          -0.5050    5.8163    0.0039 C.ar    1  LIG1        0.0227
     18 C          -0.1010    8.5769    0.0032 C.ar    1  LIG1        0.0227
     19 H          -2.2458    8.7347    0.0024 H       1  LIG1        0.0625
     20 C           0.7860    6.3335    0.0041 C.ar    1  LIG1       -0.0503
     21 C           0.9973    7.7162    0.0039 C.ar    1  LIG1       -0.0503
     22 H           1.6352    5.6549    0.0043 H       1  LIG1        0.0625
     23 H          -2.8563    6.2456    0.0035 H       1  LIG1        0.0625
     24 H           2.2064    8.1939    0.0040 H       1  LIG1        0.0625
     25 C           0.0780    9.8646    0.0027 C.ar    1  LIG1        0.2033
     26 N          -1.0439   10.6352    0.0024 N.ar    1  LIG1       -0.1258
     27 C           0.4493   12.5345    0.0016 C.ar    1  LIG1        0.1605
     28 N           1.3677   10.3000    0.0024 N.ar    1  LIG1       -0.1258
     29 N          -0.8408   11.9693    0.0019 N.ar    1  LIG1       -0.1339
     30 N           1.5361   11.6389    0.0020 N.ar    1  LIG1       -0.1339
     31 H           0.6283   13.8222    0.0011 H       1  LIG1        0.1085
@<TRIPOS>BOND
     1     8     3    1
     2     6     1    1
     3     7     2    1
     4     2     3   ar
     5     2     1   ar
     6     3     4   ar
     7     1     5   ar
     8     4     5   ar
     9     4     9    1
    10    31    27    1
    11     9    10   ar
    12     9    12   ar
    13    27    29   ar
    14    27    30   ar
    15    10    13   ar
    16    12    14   ar
    17    29    26   ar
    18    30    28   ar
    19    28    25   ar
    20    26    25   ar
    21    19    16    1
    22    14    11   ar
    23    13    11   ar
    24    25    18    1
    25    16    18   ar
    26    16    15   ar
    27    11    17    1
    28    18    21   ar
    29    23    15    1
    30    15    17   ar
    31    17    20   ar
    32    21    24    1
    33    21    20   ar
    34    20    22    1
