@<TRIPOS>MOLECULE
mol_data/noopt/geoms/mol2/585-.out
 22 24 0 0 0
SMALL
GASTEIGER

@<TRIPOS>ATOM
      1 C          -2.0792   -1.7080   -0.0002 C.ar    1  LIG1       -0.0236
      2 C          -0.7020   -1.7080   -0.0002 C.ar    1  LIG1       -0.0540
      3 C          -0.1766   -0.3757   -0.0002 C.ar    1  LIG1       -0.0438
      4 C          -1.1831    0.5643    0.0006 C.ar    1  LIG1        0.0598
      5 S          -2.6937   -0.1528    0.0006 S.2     1  LIG1       -0.0934
      6 H          -2.8374   -2.7640   -0.0008 H       1  LIG1        0.0693
      7 H           0.0503   -2.7682   -0.0004 H       1  LIG1        0.0623
      8 H           1.0969   -0.1143   -0.0009 H       1  LIG1        0.0630
      9 C          -1.0166    1.8536    0.0014 C.ar    1  LIG1        0.2099
     10 N           0.2687    2.3015    0.0018 N.ar    1  LIG1       -0.1247
     11 C          -0.6714    4.5271    0.0031 C.ar    1  LIG1        0.2099
     12 N          -2.1460    2.6134    0.0018 N.ar    1  LIG1       -0.1247
     13 N           0.4241    3.6420    0.0026 N.ar    1  LIG1       -0.1247
     14 N          -1.9558    3.9494    0.0025 N.ar    1  LIG1       -0.1247
     15 C          -0.5049    5.8164    0.0039 C.ar    1  LIG1        0.0598
     16 C          -1.5116    6.7563    0.0045 C.ar    1  LIG1       -0.0438
     17 C          -0.9863    8.0886    0.0061 C.ar    1  LIG1       -0.0540
     18 C           0.3908    8.0888    0.0057 C.ar    1  LIG1       -0.0236
     19 S           1.0056    6.5337    0.0043 S.2     1  LIG1       -0.0934
     20 H           1.1490    9.1448    0.0063 H       1  LIG1        0.0693
     21 H          -2.7850    6.4948    0.0040 H       1  LIG1        0.0630
     22 H          -1.7387    9.1488    0.0076 H       1  LIG1        0.0623
@<TRIPOS>BOND
     1     8     3    1
     2     6     1    1
     3     7     2    1
     4     2     3   ar
     5     2     1   ar
     6     3     4   ar
     7     1     5   ar
     8     4     5   ar
     9     4     9    1
    10     9    12   ar
    11     9    10   ar
    12    12    14   ar
    13    10    13   ar
    14    14    11   ar
    15    13    11   ar
    16    11    15    1
    17    15    19   ar
    18    15    16   ar
    19    21    16    1
    20    19    18   ar
    21    16    17   ar
    22    18    17   ar
    23    18    20    1
    24    17    22    1
