@<TRIPOS>MOLECULE
mol_data/noopt/geoms/mol2/588-4.out
 31 34 0 0 0
SMALL
GASTEIGER

@<TRIPOS>ATOM
      1 C          -2.0792   -1.7080   -0.0002 C.ar    1  LIG1       -0.0236
      2 C          -0.7020   -1.7080   -0.0002 C.ar    1  LIG1       -0.0540
      3 C          -0.1766   -0.3757   -0.0002 C.ar    1  LIG1       -0.0438
      4 C          -1.1831    0.5643    0.0006 C.ar    1  LIG1        0.0598
      5 S          -2.6937   -0.1528    0.0006 S.2     1  LIG1       -0.0934
      6 H          -2.8374   -2.7640   -0.0008 H       1  LIG1        0.0693
      7 H           0.0503   -2.7682   -0.0004 H       1  LIG1        0.0623
      8 H           1.0969   -0.1143   -0.0009 H       1  LIG1        0.0630
      9 C          -1.0166    1.8536    0.0014 C.ar    1  LIG1        0.2099
     10 N           0.2687    2.3015    0.0018 N.ar    1  LIG1       -0.1246
     11 C          -0.6714    4.5271    0.0031 C.ar    1  LIG1        0.2435
     12 N          -2.1460    2.6134    0.0018 N.ar    1  LIG1       -0.1246
     13 N           0.4241    3.6420    0.0026 N.ar    1  LIG1       -0.1218
     14 N          -1.9558    3.9494    0.0025 N.ar    1  LIG1       -0.1218
     15 C          -0.5049    5.8164    0.0039 C.ar    1  LIG1        0.2435
     16 N          -1.6343    6.5761    0.0042 N.ar    1  LIG1       -0.1218
     17 C          -0.1596    8.4898    0.0055 C.ar    1  LIG1        0.2034
     18 N           0.7804    6.2643    0.0042 N.ar    1  LIG1       -0.1218
     19 N          -1.4441    7.9121    0.0051 N.ar    1  LIG1       -0.1251
     20 N           0.9358    7.6048    0.0052 N.ar    1  LIG1       -0.1251
     21 C           1.3092   10.3192    0.0075 C.ar    1  LIG1       -0.0509
     22 C           1.4363   11.7217    0.0099 C.ar    1  LIG1       -0.0611
     23 C           0.0069    9.7791    0.0063 C.ar    1  LIG1        0.0226
     24 C           0.3175   12.5518    0.0104 C.ar    1  LIG1       -0.0617
     25 H           2.4320   12.1595    0.0110 H       1  LIG1        0.0618
     26 C          -1.1103   10.6072    0.0069 C.ar    1  LIG1       -0.0509
     27 C          -0.9635   11.9983    0.0088 C.ar    1  LIG1       -0.0611
     28 H          -2.1041   10.1666    0.0060 H       1  LIG1        0.0625
     29 H           0.4715   13.8426    0.0125 H       1  LIG1        0.0618
     30 H           2.3902    9.5970    0.0068 H       1  LIG1        0.0625
     31 H          -2.0115   12.7674    0.0095 H       1  LIG1        0.0618
@<TRIPOS>BOND
     1     8     3    1
     2     6     1    1
     3     7     2    1
     4     2     3   ar
     5     2     1   ar
     6     3     4   ar
     7     1     5   ar
     8     4     5   ar
     9     4     9    1
    10     9    10   ar
    11     9    12   ar
    12    10    13   ar
    13    12    14   ar
    14    14    11   ar
    15    13    11   ar
    16    11    15    1
    17    15    18   ar
    18    15    16   ar
    19    18    20   ar
    20    16    19   ar
    21    19    17   ar
    22    20    17   ar
    23    17    23    1
    24    28    26    1
    25    23    26   ar
    26    23    21   ar
    27    30    21    1
    28    26    27   ar
    29    21    22   ar
    30    27    31    1
    31    27    24   ar
    32    22    24   ar
    33    22    25    1
    34    24    29    1
