@<TRIPOS>MOLECULE
mol_data/noopt/geoms/mol2/5aa.out
 9 9 0 0 0
SMALL
GASTEIGER

@<TRIPOS>ATOM
      1 C          -2.0792   -1.7080   -0.0002 C.ar    1  LIG1       -0.0243
      2 C          -0.7020   -1.7080   -0.0002 C.ar    1  LIG1       -0.0547
      3 C          -0.1766   -0.3757   -0.0002 C.ar    1  LIG1       -0.0547
      4 C          -1.1831    0.5643    0.0006 C.ar    1  LIG1       -0.0243
      5 S          -2.6937   -0.1528    0.0006 S.2     1  LIG1       -0.1051
      6 H          -2.8374   -2.7640   -0.0008 H       1  LIG1        0.0693
      7 H          -1.0166    1.8536    0.0014 H       1  LIG1        0.0693
      8 H           0.0503   -2.7682   -0.0004 H       1  LIG1        0.0623
      9 H           1.0969   -0.1143   -0.0009 H       1  LIG1        0.0623
@<TRIPOS>BOND
     1     9     3    1
     2     6     1    1
     3     8     2    1
     4     1     2   ar
     5     1     5   ar
     6     2     3   ar
     7     3     4   ar
     8     4     5   ar
     9     4     7    1
