@<TRIPOS>MOLECULE
mol_data/noopt/geoms/mol2/5aa5aa-5aa-.out
 23 25 0 0 0
SMALL
GASTEIGER

@<TRIPOS>ATOM
      1 C          -2.0792   -1.7080   -0.0002 C.ar    1  LIG1       -0.0237
      2 C          -0.7020   -1.7080   -0.0002 C.ar    1  LIG1       -0.0541
      3 C          -0.1766   -0.3757   -0.0002 C.ar    1  LIG1       -0.0464
      4 C          -1.1831    0.5643    0.0006 C.ar    1  LIG1        0.0259
      5 S          -2.6937   -0.1528    0.0006 S.2     1  LIG1       -0.0961
      6 H          -2.8374   -2.7640   -0.0008 H       1  LIG1        0.0693
      7 H           0.0503   -2.7682   -0.0004 H       1  LIG1        0.0623
      8 H           1.0969   -0.1143   -0.0009 H       1  LIG1        0.0629
      9 C          -1.0166    1.8536    0.0014 C.ar    1  LIG1        0.0265
     10 C           0.1958    2.5069    0.0015 C.ar    1  LIG1       -0.0458
     11 C           0.0263    3.9290    0.0017 C.ar    1  LIG1       -0.0458
     12 C          -1.3057    4.2790    0.0026 C.ar    1  LIG1        0.0265
     13 S          -2.2953    2.9311    0.0023 S.2     1  LIG1       -0.0872
     14 H           1.3610    1.9305    0.0013 H       1  LIG1        0.0629
     15 H           1.0233    4.7632    0.0012 H       1  LIG1        0.0629
     16 C          -1.7708    5.4930    0.0035 C.ar    1  LIG1        0.0259
     17 C          -1.0136    6.6432    0.0227 C.ar    1  LIG1       -0.0464
     18 C          -1.8374    7.8147    0.0172 C.ar    1  LIG1       -0.0541
     19 C          -3.1758    7.4910   -0.0051 C.ar    1  LIG1       -0.0237
     20 S          -3.4074    5.8351   -0.0192 S.2     1  LIG1       -0.0961
     21 H          -4.1610    8.3391   -0.0144 H       1  LIG1        0.0693
     22 H           0.2855    6.6885    0.0432 H       1  LIG1        0.0629
     23 H          -1.3555    9.0220    0.0317 H       1  LIG1        0.0623
@<TRIPOS>BOND
     1    20    19   ar
     2    20    16   ar
     3    21    19    1
     4    19    18   ar
     5     8     3    1
     6     6     1    1
     7     7     2    1
     8     2     3   ar
     9     2     1   ar
    10     3     4   ar
    11     1     5   ar
    12     4     5   ar
    13     4     9    1
    14    15    11    1
    15    14    10    1
    16     9    10   ar
    17     9    13   ar
    18    10    11   ar
    19    11    12   ar
    20    13    12   ar
    21    12    16    1
    22    16    17   ar
    23    18    17   ar
    24    18    23    1
    25    17    22    1
