@<TRIPOS>MOLECULE
mol_data/noopt/geoms/mol2/5aa5aa-5aa5aa.out
 30 33 0 0 0
SMALL
GASTEIGER

@<TRIPOS>ATOM
      1 C          -2.0792   -1.7080   -0.0002 C.ar    1  LIG1       -0.0237
      2 C          -0.7020   -1.7080   -0.0002 C.ar    1  LIG1       -0.0541
      3 C          -0.1766   -0.3757   -0.0002 C.ar    1  LIG1       -0.0464
      4 C          -1.1831    0.5643    0.0006 C.ar    1  LIG1        0.0259
      5 S          -2.6937   -0.1528    0.0006 S.2     1  LIG1       -0.0961
      6 H          -2.8374   -2.7640   -0.0008 H       1  LIG1        0.0693
      7 H           0.0503   -2.7682   -0.0004 H       1  LIG1        0.0623
      8 H           1.0969   -0.1143   -0.0009 H       1  LIG1        0.0629
      9 C          -1.0166    1.8536    0.0014 C.ar    1  LIG1        0.0265
     10 C           0.1958    2.5069    0.0015 C.ar    1  LIG1       -0.0458
     11 C           0.0263    3.9290    0.0017 C.ar    1  LIG1       -0.0458
     12 C          -1.3057    4.2790    0.0026 C.ar    1  LIG1        0.0265
     13 S          -2.2953    2.9311    0.0023 S.2     1  LIG1       -0.0872
     14 H           1.3610    1.9305    0.0013 H       1  LIG1        0.0629
     15 H           1.0233    4.7632    0.0012 H       1  LIG1        0.0629
     16 C          -1.7708    5.4930    0.0035 C.ar    1  LIG1        0.0265
     17 C          -1.0134    6.6433    0.0038 C.ar    1  LIG1       -0.0458
     18 C          -1.8373    7.8147    0.0042 C.ar    1  LIG1       -0.0458
     19 C          -3.1759    7.4910    0.0050 C.ar    1  LIG1        0.0265
     20 S          -3.4076    5.8350    0.0046 S.2     1  LIG1       -0.0872
     21 H           0.2858    6.6886    0.0035 H       1  LIG1        0.0629
     22 H          -1.3553    9.0221    0.0038 H       1  LIG1        0.0629
     23 C          -4.1612    8.3391    0.0062 C.ar    1  LIG1        0.0259
     24 C          -4.0402    9.7108    0.0254 C.ar    1  LIG1       -0.0464
     25 C          -5.3212   10.3513    0.0201 C.ar    1  LIG1       -0.0541
     26 C          -6.3459    9.4314   -0.0022 C.ar    1  LIG1       -0.0237
     27 S          -5.7642    7.8638   -0.0165 S.2     1  LIG1       -0.0961
     28 H          -7.6155    9.7107   -0.0114 H       1  LIG1        0.0693
     29 H          -2.9181   10.3669    0.0458 H       1  LIG1        0.0629
     30 H          -5.4697   11.6427    0.0347 H       1  LIG1        0.0623
@<TRIPOS>BOND
     1    27    26   ar
     2    27    23   ar
     3    28    26    1
     4    26    25   ar
     5     8     3    1
     6     6     1    1
     7     7     2    1
     8     2     3   ar
     9     2     1   ar
    10     3     4   ar
    11     1     5   ar
    12     4     5   ar
    13     4     9    1
    14    15    11    1
    15    14    10    1
    16     9    10   ar
    17     9    13   ar
    18    10    11   ar
    19    11    12   ar
    20    13    12   ar
    21    12    16    1
    22    21    17    1
    23    16    17   ar
    24    16    20   ar
    25    22    18    1
    26    17    18   ar
    27    18    19   ar
    28    20    19   ar
    29    19    23    1
    30    23    24   ar
    31    25    24   ar
    32    25    30    1
    33    24    29    1
