@<TRIPOS>MOLECULE
mol_data/noopt/geoms/mol2/5aa5aa5aa-5aa.out
 30 33 0 0 0
SMALL
GASTEIGER

@<TRIPOS>ATOM
      1 C          -2.0792   -1.7080   -0.0002 C.ar    1  LIG1       -0.0237
      2 C          -0.7020   -1.7080   -0.0002 C.ar    1  LIG1       -0.0541
      3 C          -0.1766   -0.3757   -0.0002 C.ar    1  LIG1       -0.0464
      4 C          -1.1831    0.5643    0.0006 C.ar    1  LIG1        0.0259
      5 S          -2.6937   -0.1528    0.0006 S.2     1  LIG1       -0.0961
      6 H          -2.8374   -2.7640   -0.0008 H       1  LIG1        0.0693
      7 H           0.0503   -2.7682   -0.0004 H       1  LIG1        0.0623
      8 H           1.0969   -0.1143   -0.0009 H       1  LIG1        0.0629
      9 C          -1.0166    1.8536    0.0014 C.ar    1  LIG1        0.0265
     10 C           0.1956    2.5069    0.0205 C.ar    1  LIG1       -0.0458
     11 C           0.0262    3.9290    0.0147 C.ar    1  LIG1       -0.0458
     12 C          -1.3056    4.2790   -0.0075 C.ar    1  LIG1        0.0265
     13 S          -2.2951    2.9311   -0.0215 S.2     1  LIG1       -0.0872
     14 H           1.3607    1.9305    0.0410 H       1  LIG1        0.0629
     15 H           1.0231    4.7632    0.0291 H       1  LIG1        0.0629
     16 C          -1.7706    5.4930   -0.0170 C.ar    1  LIG1        0.0265
     17 C          -1.0134    6.6433   -0.0043 C.ar    1  LIG1       -0.0458
     18 C          -1.8371    7.8147   -0.0210 C.ar    1  LIG1       -0.0458
     19 C          -3.1754    7.4910   -0.0446 C.ar    1  LIG1        0.0265
     20 S          -3.4072    5.8350   -0.0470 S.2     1  LIG1       -0.0872
     21 H           0.2856    6.6886    0.0196 H       1  LIG1        0.0629
     22 H          -1.3552    9.0221   -0.0141 H       1  LIG1        0.0629
     23 C          -4.1606    8.3390   -0.0631 C.ar    1  LIG1        0.0259
     24 C          -4.0397    9.7109   -0.0560 C.ar    1  LIG1       -0.0464
     25 C          -5.3204   10.3513   -0.0823 C.ar    1  LIG1       -0.0541
     26 C          -6.3449    9.4313   -0.1072 C.ar    1  LIG1       -0.0237
     27 S          -5.7633    7.8636   -0.0994 S.2     1  LIG1       -0.0961
     28 H          -7.6143    9.7105   -0.1337 H       1  LIG1        0.0693
     29 H          -2.9178   10.3671   -0.0292 H       1  LIG1        0.0629
     30 H          -5.4689   11.6428   -0.0821 H       1  LIG1        0.0623
@<TRIPOS>BOND
     1    28    26    1
     2    26    27   ar
     3    26    25   ar
     4    27    23   ar
     5    25    30    1
     6    25    24   ar
     7    23    24   ar
     8    23    19    1
     9    24    29    1
    10    20    19   ar
    11    20    16   ar
    12    19    18   ar
    13    13    12   ar
    14    13     9   ar
    15    18    22    1
    16    18    17   ar
    17    16    12    1
    18    16    17   ar
    19    12    11   ar
    20    17    21    1
    21     8     3    1
    22     6     1    1
    23     7     2    1
    24     2     3   ar
    25     2     1   ar
    26     3     4   ar
    27     1     5   ar
    28     5     4   ar
    29     4     9    1
    30     9    10   ar
    31    11    10   ar
    32    11    15    1
    33    10    14    1
