@<TRIPOS>MOLECULE
mol_data/noopt/geoms/mol2/5aa5aa.out
 16 17 0 0 0
SMALL
GASTEIGER

@<TRIPOS>ATOM
      1 C          -2.0792   -1.7080   -0.0002 C.ar    1  LIG1       -0.0237
      2 C          -0.7020   -1.7080   -0.0002 C.ar    1  LIG1       -0.0541
      3 C          -0.1766   -0.3757   -0.0002 C.ar    1  LIG1       -0.0464
      4 C          -1.1831    0.5643    0.0006 C.ar    1  LIG1        0.0259
      5 S          -2.6937   -0.1528    0.0006 S.2     1  LIG1       -0.0961
      6 H          -2.8374   -2.7640   -0.0008 H       1  LIG1        0.0693
      7 H           0.0503   -2.7682   -0.0004 H       1  LIG1        0.0623
      8 H           1.0969   -0.1143   -0.0009 H       1  LIG1        0.0629
      9 C          -1.0166    1.8536    0.0014 C.ar    1  LIG1        0.0259
     10 C           0.1956    2.5069    0.0205 C.ar    1  LIG1       -0.0464
     11 C           0.0262    3.9290    0.0147 C.ar    1  LIG1       -0.0541
     12 C          -1.3056    4.2790   -0.0075 C.ar    1  LIG1       -0.0237
     13 S          -2.2951    2.9311   -0.0215 S.2     1  LIG1       -0.0961
     14 H          -1.7706    5.4930   -0.0170 H       1  LIG1        0.0693
     15 H           1.3607    1.9305    0.0410 H       1  LIG1        0.0629
     16 H           1.0231    4.7632    0.0291 H       1  LIG1        0.0623
@<TRIPOS>BOND
     1    13    12   ar
     2    13     9   ar
     3    14    12    1
     4    12    11   ar
     5     8     3    1
     6     6     1    1
     7     7     2    1
     8     1     2   ar
     9     1     5   ar
    10     2     3   ar
    11     3     4   ar
    12     4     5   ar
    13     4     9    1
    14     9    10   ar
    15    11    10   ar
    16    11    16    1
    17    10    15    1
