@<TRIPOS>MOLECULE
mol_data/noopt/geoms/mol2/5aa5aa-5aa5aa-.out
 30 33 0 0 0
SMALL
GASTEIGER

@<TRIPOS>ATOM
      1 C          -2.0792   -1.7080   -0.0002 C.ar    1  LIG1       -0.0237
      2 C          -0.7020   -1.7080   -0.0002 C.ar    1  LIG1       -0.0541
      3 C          -0.1766   -0.3757   -0.0002 C.ar    1  LIG1       -0.0464
      4 C          -1.1831    0.5643    0.0006 C.ar    1  LIG1        0.0259
      5 S          -2.6937   -0.1528    0.0006 S.2     1  LIG1       -0.0961
      6 H          -2.8374   -2.7640   -0.0008 H       1  LIG1        0.0693
      7 H           0.0503   -2.7682   -0.0004 H       1  LIG1        0.0623
      8 H           1.0969   -0.1143   -0.0009 H       1  LIG1        0.0629
      9 C          -1.0166    1.8536    0.0014 C.ar    1  LIG1        0.0265
     10 C           0.1958    2.5069    0.0015 C.ar    1  LIG1       -0.0458
     11 C           0.0263    3.9290    0.0017 C.ar    1  LIG1       -0.0458
     12 C          -1.3057    4.2790    0.0026 C.ar    1  LIG1        0.0265
     13 S          -2.2953    2.9311    0.0023 S.2     1  LIG1       -0.0872
     14 H           1.3610    1.9305    0.0013 H       1  LIG1        0.0629
     15 H           1.0233    4.7632    0.0012 H       1  LIG1        0.0629
     16 C          -1.7708    5.4930    0.0035 C.ar    1  LIG1        0.0265
     17 C          -1.0134    6.6433    0.0038 C.ar    1  LIG1       -0.0458
     18 C          -1.8373    7.8147    0.0042 C.ar    1  LIG1       -0.0458
     19 C          -3.1759    7.4910    0.0050 C.ar    1  LIG1        0.0265
     20 S          -3.4076    5.8350    0.0046 S.2     1  LIG1       -0.0872
     21 H           0.2858    6.6886    0.0035 H       1  LIG1        0.0629
     22 H          -1.3553    9.0221    0.0038 H       1  LIG1        0.0629
     23 C          -4.1612    8.3391    0.0062 C.ar    1  LIG1        0.0259
     24 C          -4.0401    9.7109    0.0065 C.ar    1  LIG1       -0.0464
     25 C          -5.3211   10.3514    0.0071 C.ar    1  LIG1       -0.0541
     26 C          -6.3459    9.4314    0.0079 C.ar    1  LIG1       -0.0237
     27 S          -5.7643    7.8636    0.0073 S.2     1  LIG1       -0.0961
     28 H          -7.6156    9.7105    0.0092 H       1  LIG1        0.0693
     29 H          -2.9179   10.3672    0.0061 H       1  LIG1        0.0629
     30 H          -5.4696   11.6429    0.0067 H       1  LIG1        0.0623
@<TRIPOS>BOND
     1     8     3    1
     2     6     1    1
     3     7     2    1
     4     2     3   ar
     5     2     1   ar
     6     3     4   ar
     7     1     5   ar
     8     4     5   ar
     9     4     9    1
    10    15    11    1
    11    14    10    1
    12     9    10   ar
    13     9    13   ar
    14    10    11   ar
    15    11    12   ar
    16    13    12   ar
    17    12    16    1
    18    21    17    1
    19    16    17   ar
    20    16    20   ar
    21    22    18    1
    22    17    18   ar
    23    18    19   ar
    24    20    19   ar
    25    19    23    1
    26    29    24    1
    27    23    24   ar
    28    23    27   ar
    29    24    25   ar
    30    30    25    1
    31    25    26   ar
    32    27    26   ar
    33    26    28    1
