@<TRIPOS>MOLECULE
mol_data/noopt/geoms/mol2/5aa5aa-5aa-5aa-.out
 30 33 0 0 0
SMALL
GASTEIGER

@<TRIPOS>ATOM
      1 C          -2.0792   -1.7080   -0.0002 C.ar    1  LIG1       -0.0237
      2 C          -0.7020   -1.7080   -0.0002 C.ar    1  LIG1       -0.0541
      3 C          -0.1766   -0.3757   -0.0002 C.ar    1  LIG1       -0.0464
      4 C          -1.1831    0.5643    0.0006 C.ar    1  LIG1        0.0259
      5 S          -2.6937   -0.1528    0.0006 S.2     1  LIG1       -0.0961
      6 H          -2.8374   -2.7640   -0.0008 H       1  LIG1        0.0693
      7 H           0.0503   -2.7682   -0.0004 H       1  LIG1        0.0623
      8 H           1.0969   -0.1143   -0.0009 H       1  LIG1        0.0629
      9 C          -1.0166    1.8536    0.0014 C.ar    1  LIG1        0.0265
     10 C           0.1958    2.5069    0.0015 C.ar    1  LIG1       -0.0458
     11 C           0.0263    3.9290    0.0017 C.ar    1  LIG1       -0.0458
     12 C          -1.3057    4.2790    0.0026 C.ar    1  LIG1        0.0265
     13 S          -2.2953    2.9311    0.0023 S.2     1  LIG1       -0.0872
     14 H           1.3610    1.9305    0.0013 H       1  LIG1        0.0629
     15 H           1.0233    4.7632    0.0012 H       1  LIG1        0.0629
     16 C          -1.7708    5.4930    0.0035 C.ar    1  LIG1        0.0265
     17 C          -1.0136    6.6432    0.0227 C.ar    1  LIG1       -0.0458
     18 C          -1.8374    7.8147    0.0172 C.ar    1  LIG1       -0.0458
     19 C          -3.1758    7.4910   -0.0051 C.ar    1  LIG1        0.0265
     20 S          -3.4074    5.8351   -0.0192 S.2     1  LIG1       -0.0872
     21 H           0.2855    6.6885    0.0432 H       1  LIG1        0.0629
     22 H          -1.3555    9.0220    0.0317 H       1  LIG1        0.0629
     23 C          -4.1610    8.3391   -0.0144 C.ar    1  LIG1        0.0259
     24 C          -4.0399    9.7110   -0.0205 C.ar    1  LIG1       -0.0464
     25 C          -5.3208   10.3515   -0.0311 C.ar    1  LIG1       -0.0541
     26 C          -6.3457    9.4315   -0.0316 C.ar    1  LIG1       -0.0237
     27 S          -5.7642    7.8638   -0.0205 S.2     1  LIG1       -0.0961
     28 H          -7.6153    9.7107   -0.0396 H       1  LIG1        0.0693
     29 H          -2.9176   10.3672   -0.0175 H       1  LIG1        0.0629
     30 H          -5.4692   11.6430   -0.0391 H       1  LIG1        0.0623
@<TRIPOS>BOND
     1    28    26    1
     2    30    25    1
     3    26    25   ar
     4    26    27   ar
     5    25    24   ar
     6    24    29    1
     7    24    23   ar
     8    27    23   ar
     9    20    19   ar
    10    20    16   ar
    11    23    19    1
    12    19    18   ar
    13     8     3    1
    14     6     1    1
    15     7     2    1
    16     1     2   ar
    17     1     5   ar
    18     3     2   ar
    19     3     4   ar
    20     5     4   ar
    21     4     9    1
    22    15    11    1
    23    14    10    1
    24     9    10   ar
    25     9    13   ar
    26    10    11   ar
    27    11    12   ar
    28    13    12   ar
    29    12    16    1
    30    16    17   ar
    31    18    17   ar
    32    18    22    1
    33    17    21    1
