@<TRIPOS>MOLECULE
mol_data/noopt/geoms/mol2/5aa5aa5aa5aa-.out
 30 33 0 0 0
SMALL
GASTEIGER

@<TRIPOS>ATOM
      1 C          -2.0792   -1.7080   -0.0002 C.ar    1  LIG1       -0.0237
      2 C          -0.7020   -1.7080   -0.0002 C.ar    1  LIG1       -0.0541
      3 C          -0.1766   -0.3757   -0.0002 C.ar    1  LIG1       -0.0464
      4 C          -1.1831    0.5643    0.0006 C.ar    1  LIG1        0.0259
      5 S          -2.6937   -0.1528    0.0006 S.2     1  LIG1       -0.0961
      6 H          -2.8374   -2.7640   -0.0008 H       1  LIG1        0.0693
      7 H           0.0503   -2.7682   -0.0004 H       1  LIG1        0.0623
      8 H           1.0969   -0.1143   -0.0009 H       1  LIG1        0.0629
      9 C          -1.0166    1.8536    0.0014 C.ar    1  LIG1        0.0265
     10 C           0.1956    2.5069    0.0205 C.ar    1  LIG1       -0.0458
     11 C           0.0262    3.9290    0.0147 C.ar    1  LIG1       -0.0458
     12 C          -1.3056    4.2790   -0.0075 C.ar    1  LIG1        0.0265
     13 S          -2.2951    2.9311   -0.0215 S.2     1  LIG1       -0.0872
     14 H           1.3607    1.9305    0.0410 H       1  LIG1        0.0629
     15 H           1.0231    4.7632    0.0291 H       1  LIG1        0.0629
     16 C          -1.7706    5.4930   -0.0170 C.ar    1  LIG1        0.0265
     17 C          -1.0132    6.6432   -0.0232 C.ar    1  LIG1       -0.0458
     18 C          -1.8369    7.8147   -0.0340 C.ar    1  LIG1       -0.0458
     19 C          -3.1756    7.4910   -0.0345 C.ar    1  LIG1        0.0265
     20 S          -3.4074    5.8350   -0.0232 S.2     1  LIG1       -0.0872
     21 H           0.2860    6.6885   -0.0202 H       1  LIG1        0.0629
     22 H          -1.3549    9.0220   -0.0421 H       1  LIG1        0.0629
     23 C          -4.1608    8.3391   -0.0426 C.ar    1  LIG1        0.0259
     24 C          -4.0397    9.7110   -0.0479 C.ar    1  LIG1       -0.0464
     25 C          -5.3206   10.3514   -0.0572 C.ar    1  LIG1       -0.0541
     26 C          -6.3455    9.4315   -0.0576 C.ar    1  LIG1       -0.0237
     27 S          -5.7640    7.8637   -0.0478 S.2     1  LIG1       -0.0961
     28 H          -7.6151    9.7107   -0.0644 H       1  LIG1        0.0693
     29 H          -2.9175   10.3672   -0.0453 H       1  LIG1        0.0629
     30 H          -5.4690   11.6429   -0.0642 H       1  LIG1        0.0623
@<TRIPOS>BOND
     1    28    26    1
     2    30    25    1
     3    26    25   ar
     4    26    27   ar
     5    25    24   ar
     6    24    29    1
     7    24    23   ar
     8    27    23   ar
     9    23    19    1
    10    22    18    1
    11    19    18   ar
    12    19    20   ar
    13    18    17   ar
    14    17    21    1
    15    17    16   ar
    16    20    16   ar
    17    13    12   ar
    18    13     9   ar
    19    16    12    1
    20    12    11   ar
    21     8     3    1
    22     6     1    1
    23     7     2    1
    24     1     2   ar
    25     1     5   ar
    26     3     2   ar
    27     3     4   ar
    28     5     4   ar
    29     4     9    1
    30     9    10   ar
    31    11    10   ar
    32    11    15    1
    33    10    14    1
