@<TRIPOS>MOLECULE
mol_data/noopt/geoms/mol2/5ad5ad-5ad-.out
 26 28 0 0 0
SMALL
GASTEIGER

@<TRIPOS>ATOM
      1 C          -2.0792   -1.7080   -0.0002 C.ar    1  LIG1       -0.0225
      2 C          -0.7020   -1.7080   -0.0002 C.ar    1  LIG1       -0.0367
      3 C          -0.1766   -0.3757   -0.0002 C.ar    1  LIG1        0.0670
      4 C          -1.1831    0.5643    0.0006 C.ar    1  LIG1        0.0433
      5 S          -2.6937   -0.1528    0.0006 S.2     1  LIG1       -0.0948
      6 H          -2.8374   -2.7640   -0.0008 H       1  LIG1        0.0694
      7 H           0.0503   -2.7682   -0.0004 H       1  LIG1        0.0636
      8 N           2.2200    0.1162   -0.0015 N.1     1  LIG1       -0.1908
      9 C           1.0969   -0.1143   -0.0009 C.1     1  LIG1        0.1003
     10 C          -1.0166    1.8536    0.0014 C.ar    1  LIG1        0.0290
     11 C           0.1958    2.5069    0.0015 C.ar    1  LIG1       -0.0284
     12 C           0.0263    3.9290    0.0017 C.ar    1  LIG1        0.0676
     13 C          -1.3057    4.2790    0.0026 C.ar    1  LIG1        0.0439
     14 S          -2.2953    2.9311    0.0023 S.2     1  LIG1       -0.0859
     15 H           1.3610    1.9305    0.0013 H       1  LIG1        0.0642
     16 N           1.9027    5.4990    0.0007 N.1     1  LIG1       -0.1908
     17 C           1.0233    4.7632    0.0012 C.1     1  LIG1        0.1003
     18 C          -1.7708    5.4930    0.0035 C.ar    1  LIG1        0.0284
     19 C          -1.0136    6.6432    0.0227 C.ar    1  LIG1       -0.0290
     20 C          -1.8374    7.8147    0.0172 C.ar    1  LIG1        0.0594
     21 C          -3.1758    7.4910   -0.0051 C.ar    1  LIG1       -0.0063
     22 S          -3.4074    5.8351   -0.0192 S.2     1  LIG1       -0.0948
     23 H          -4.1610    8.3391   -0.0144 H       1  LIG1        0.0706
     24 H           0.2855    6.6885    0.0432 H       1  LIG1        0.0642
     25 N          -0.9305   10.0869    0.0445 N.1     1  LIG1       -0.1909
     26 C          -1.3555    9.0220    0.0317 C.1     1  LIG1        0.0997
@<TRIPOS>BOND
     1    22    21   ar
     2    22    18   ar
     3    23    21    1
     4    21    20   ar
     5     8     9    3
     6     9     3    1
     7     6     1    1
     8     7     2    1
     9     2     3   ar
    10     2     1   ar
    11     3     4   ar
    12     1     5   ar
    13     4     5   ar
    14     4    10    1
    15    16    17    3
    16    17    12    1
    17    15    11    1
    18    10    11   ar
    19    10    14   ar
    20    11    12   ar
    21    12    13   ar
    22    14    13   ar
    23    13    18    1
    24    18    19   ar
    25    20    19   ar
    26    20    26    1
    27    19    24    1
    28    26    25    3
