@<TRIPOS>MOLECULE
mol_data/noopt/geoms/mol2/5ad5ad5ad5ad-.out
 34 37 0 0 0
SMALL
GASTEIGER

@<TRIPOS>ATOM
      1 C          -2.0792   -1.7080   -0.0002 C.ar    1  LIG1       -0.0225
      2 C          -0.7020   -1.7080   -0.0002 C.ar    1  LIG1       -0.0367
      3 C          -0.1766   -0.3757   -0.0002 C.ar    1  LIG1        0.0670
      4 C          -1.1831    0.5643    0.0006 C.ar    1  LIG1        0.0433
      5 S          -2.6937   -0.1528    0.0006 S.2     1  LIG1       -0.0948
      6 H          -2.8374   -2.7640   -0.0008 H       1  LIG1        0.0694
      7 H           0.0503   -2.7682   -0.0004 H       1  LIG1        0.0636
      8 N           2.2200    0.1162   -0.0015 N.1     1  LIG1       -0.1908
      9 C           1.0969   -0.1143   -0.0009 C.1     1  LIG1        0.1003
     10 C          -1.0166    1.8536    0.0014 C.ar    1  LIG1        0.0290
     11 C           0.1956    2.5069    0.0205 C.ar    1  LIG1       -0.0284
     12 C           0.0262    3.9290    0.0147 C.ar    1  LIG1        0.0676
     13 C          -1.3056    4.2790   -0.0075 C.ar    1  LIG1        0.0439
     14 S          -2.2951    2.9311   -0.0215 S.2     1  LIG1       -0.0859
     15 H           1.3607    1.9305    0.0410 H       1  LIG1        0.0642
     16 N           1.9024    5.4990    0.0418 N.1     1  LIG1       -0.1908
     17 C           1.0231    4.7632    0.0291 C.1     1  LIG1        0.1003
     18 C          -1.7706    5.4930   -0.0170 C.ar    1  LIG1        0.0290
     19 C          -1.0132    6.6432   -0.0232 C.ar    1  LIG1       -0.0284
     20 C          -1.8369    7.8147   -0.0340 C.ar    1  LIG1        0.0676
     21 C          -3.1756    7.4910   -0.0345 C.ar    1  LIG1        0.0439
     22 S          -3.4074    5.8350   -0.0232 S.2     1  LIG1       -0.0859
     23 H           0.2860    6.6885   -0.0202 H       1  LIG1        0.0642
     24 N          -0.9297   10.0868   -0.0492 N.1     1  LIG1       -0.1908
     25 C          -1.3549    9.0220   -0.0421 C.1     1  LIG1        0.1003
     26 C          -4.1608    8.3391   -0.0426 C.ar    1  LIG1        0.0284
     27 C          -4.0397    9.7110   -0.0479 C.ar    1  LIG1       -0.0290
     28 C          -5.3206   10.3514   -0.0572 C.ar    1  LIG1        0.0594
     29 C          -6.3455    9.4315   -0.0576 C.ar    1  LIG1       -0.0063
     30 S          -5.7640    7.8637   -0.0478 S.2     1  LIG1       -0.0948
     31 H          -7.6151    9.7107   -0.0644 H       1  LIG1        0.0706
     32 H          -2.9175   10.3672   -0.0453 H       1  LIG1        0.0642
     33 N          -5.5999   12.7820   -0.0705 N.1     1  LIG1       -0.1909
     34 C          -5.4690   11.6429   -0.0642 C.1     1  LIG1        0.0997
@<TRIPOS>BOND
     1    33    34    3
     2    31    29    1
     3    34    28    1
     4    29    28   ar
     5    29    30   ar
     6    28    27   ar
     7    24    25    3
     8    27    32    1
     9    27    26   ar
    10    30    26   ar
    11    26    21    1
    12    25    20    1
    13    21    20   ar
    14    21    22   ar
    15    20    19   ar
    16    19    23    1
    17    19    18   ar
    18    22    18   ar
    19    14    13   ar
    20    14    10   ar
    21    18    13    1
    22    13    12   ar
    23     8     9    3
    24     9     3    1
    25     6     1    1
    26     7     2    1
    27     1     2   ar
    28     1     5   ar
    29     3     2   ar
    30     3     4   ar
    31     5     4   ar
    32     4    10    1
    33    10    11   ar
    34    12    11   ar
    35    12    17    1
    36    11    15    1
    37    17    16    3
