@<TRIPOS>MOLECULE
mol_data/noopt/geoms/mol2/5ad5ad5ad-5ad.out
 34 37 0 0 0
SMALL
GASTEIGER

@<TRIPOS>ATOM
      1 C          -2.0792   -1.7080   -0.0002 C.ar    1  LIG1       -0.0225
      2 C          -0.7020   -1.7080   -0.0002 C.ar    1  LIG1       -0.0367
      3 C          -0.1766   -0.3757   -0.0002 C.ar    1  LIG1        0.0670
      4 C          -1.1831    0.5643    0.0006 C.ar    1  LIG1        0.0433
      5 S          -2.6937   -0.1528    0.0006 S.2     1  LIG1       -0.0948
      6 H          -2.8374   -2.7640   -0.0008 H       1  LIG1        0.0694
      7 H           0.0503   -2.7682   -0.0004 H       1  LIG1        0.0636
      8 N           2.2200    0.1162   -0.0015 N.1     1  LIG1       -0.1908
      9 C           1.0969   -0.1143   -0.0009 C.1     1  LIG1        0.1003
     10 C          -1.0166    1.8536    0.0014 C.ar    1  LIG1        0.0290
     11 C           0.1956    2.5069    0.0205 C.ar    1  LIG1       -0.0284
     12 C           0.0262    3.9290    0.0147 C.ar    1  LIG1        0.0676
     13 C          -1.3056    4.2790   -0.0075 C.ar    1  LIG1        0.0439
     14 S          -2.2951    2.9311   -0.0215 S.2     1  LIG1       -0.0859
     15 H           1.3607    1.9305    0.0410 H       1  LIG1        0.0642
     16 N           1.9024    5.4990    0.0418 N.1     1  LIG1       -0.1908
     17 C           1.0231    4.7632    0.0291 C.1     1  LIG1        0.1003
     18 C          -1.7706    5.4930   -0.0170 C.ar    1  LIG1        0.0290
     19 C          -1.0134    6.6433   -0.0043 C.ar    1  LIG1       -0.0284
     20 C          -1.8371    7.8147   -0.0210 C.ar    1  LIG1        0.0676
     21 C          -3.1754    7.4910   -0.0446 C.ar    1  LIG1        0.0439
     22 S          -3.4072    5.8350   -0.0470 S.2     1  LIG1       -0.0859
     23 H           0.2856    6.6886    0.0196 H       1  LIG1        0.0642
     24 N          -0.9301   10.0870   -0.0081 N.1     1  LIG1       -0.1908
     25 C          -1.3552    9.0221   -0.0141 C.1     1  LIG1        0.1003
     26 C          -4.1606    8.3390   -0.0631 C.ar    1  LIG1        0.0284
     27 C          -4.0397    9.7109   -0.0560 C.ar    1  LIG1       -0.0290
     28 C          -5.3204   10.3513   -0.0823 C.ar    1  LIG1        0.0594
     29 C          -6.3449    9.4313   -0.1072 C.ar    1  LIG1       -0.0063
     30 S          -5.7633    7.8636   -0.0994 S.2     1  LIG1       -0.0948
     31 H          -7.6143    9.7105   -0.1337 H       1  LIG1        0.0706
     32 H          -2.9178   10.3671   -0.0292 H       1  LIG1        0.0642
     33 N          -5.5999   12.7819   -0.0819 N.1     1  LIG1       -0.1909
     34 C          -5.4689   11.6428   -0.0821 C.1     1  LIG1        0.0997
@<TRIPOS>BOND
     1    31    29    1
     2    29    30   ar
     3    29    28   ar
     4    30    26   ar
     5    28    34    1
     6    28    27   ar
     7    34    33    3
     8    26    27   ar
     9    26    21    1
    10    27    32    1
    11    22    21   ar
    12    22    18   ar
    13    21    20   ar
    14    14    13   ar
    15    14    10   ar
    16    20    25    1
    17    20    19   ar
    18    18    13    1
    19    18    19   ar
    20    25    24    3
    21    13    12   ar
    22    19    23    1
    23     8     9    3
    24     9     3    1
    25     6     1    1
    26     7     2    1
    27     2     3   ar
    28     2     1   ar
    29     3     4   ar
    30     1     5   ar
    31     5     4   ar
    32     4    10    1
    33    10    11   ar
    34    12    11   ar
    35    12    17    1
    36    11    15    1
    37    17    16    3
