@<TRIPOS>MOLECULE
mol_data/noopt/geoms/mol2/5ad5ad.out
 18 19 0 0 0
SMALL
GASTEIGER

@<TRIPOS>ATOM
      1 C          -2.0792   -1.7080   -0.0002 C.ar    1  LIG1       -0.0225
      2 C          -0.7020   -1.7080   -0.0002 C.ar    1  LIG1       -0.0367
      3 C          -0.1766   -0.3757   -0.0002 C.ar    1  LIG1        0.0670
      4 C          -1.1831    0.5643    0.0006 C.ar    1  LIG1        0.0432
      5 S          -2.6937   -0.1528    0.0006 S.2     1  LIG1       -0.0948
      6 H          -2.8374   -2.7640   -0.0008 H       1  LIG1        0.0694
      7 H           0.0503   -2.7682   -0.0004 H       1  LIG1        0.0636
      8 N           2.2200    0.1162   -0.0015 N.1     1  LIG1       -0.1908
      9 C           1.0969   -0.1143   -0.0009 C.1     1  LIG1        0.1003
     10 C          -1.0166    1.8536    0.0014 C.ar    1  LIG1        0.0284
     11 C           0.1956    2.5069    0.0205 C.ar    1  LIG1       -0.0290
     12 C           0.0262    3.9290    0.0147 C.ar    1  LIG1        0.0594
     13 C          -1.3056    4.2790   -0.0075 C.ar    1  LIG1       -0.0063
     14 S          -2.2951    2.9311   -0.0215 S.2     1  LIG1       -0.0948
     15 H          -1.7706    5.4930   -0.0170 H       1  LIG1        0.0706
     16 H           1.3607    1.9305    0.0410 H       1  LIG1        0.0642
     17 N           1.9024    5.4990    0.0418 N.1     1  LIG1       -0.1909
     18 C           1.0231    4.7632    0.0291 C.1     1  LIG1        0.0997
@<TRIPOS>BOND
     1    14    13   ar
     2    14    10   ar
     3    15    13    1
     4    13    12   ar
     5     8     9    3
     6     9     3    1
     7     6     1    1
     8     7     2    1
     9     2     3   ar
    10     2     1   ar
    11     3     4   ar
    12     1     5   ar
    13     4     5   ar
    14     4    10    1
    15    10    11   ar
    16    12    11   ar
    17    12    18    1
    18    11    16    1
    19    18    17    3
