@<TRIPOS>MOLECULE
mol_data/noopt/geoms/mol2/5ad5ad-5ad5ad-.out
 34 37 0 0 0
SMALL
GASTEIGER

@<TRIPOS>ATOM
      1 C          -2.0792   -1.7080   -0.0002 C.ar    1  LIG1       -0.0225
      2 C          -0.7020   -1.7080   -0.0002 C.ar    1  LIG1       -0.0367
      3 C          -0.1766   -0.3757   -0.0002 C.ar    1  LIG1        0.0670
      4 C          -1.1831    0.5643    0.0006 C.ar    1  LIG1        0.0433
      5 S          -2.6937   -0.1528    0.0006 S.2     1  LIG1       -0.0948
      6 H          -2.8374   -2.7640   -0.0008 H       1  LIG1        0.0694
      7 H           0.0503   -2.7682   -0.0004 H       1  LIG1        0.0636
      8 N           2.2200    0.1162   -0.0015 N.1     1  LIG1       -0.1908
      9 C           1.0969   -0.1143   -0.0009 C.1     1  LIG1        0.1003
     10 C          -1.0166    1.8536    0.0014 C.ar    1  LIG1        0.0290
     11 C           0.1958    2.5069    0.0015 C.ar    1  LIG1       -0.0284
     12 C           0.0263    3.9290    0.0017 C.ar    1  LIG1        0.0676
     13 C          -1.3057    4.2790    0.0026 C.ar    1  LIG1        0.0439
     14 S          -2.2953    2.9311    0.0023 S.2     1  LIG1       -0.0859
     15 H           1.3610    1.9305    0.0013 H       1  LIG1        0.0642
     16 N           1.9027    5.4990    0.0007 N.1     1  LIG1       -0.1908
     17 C           1.0233    4.7632    0.0012 C.1     1  LIG1        0.1003
     18 C          -1.7708    5.4930    0.0035 C.ar    1  LIG1        0.0290
     19 C          -1.0134    6.6433    0.0038 C.ar    1  LIG1       -0.0284
     20 C          -1.8373    7.8147    0.0042 C.ar    1  LIG1        0.0676
     21 C          -3.1759    7.4910    0.0050 C.ar    1  LIG1        0.0439
     22 S          -3.4076    5.8350    0.0046 S.2     1  LIG1       -0.0859
     23 H           0.2858    6.6886    0.0035 H       1  LIG1        0.0642
     24 N          -0.9302   10.0870    0.0034 N.1     1  LIG1       -0.1908
     25 C          -1.3553    9.0221    0.0038 C.1     1  LIG1        0.1003
     26 C          -4.1612    8.3391    0.0062 C.ar    1  LIG1        0.0284
     27 C          -4.0401    9.7109    0.0065 C.ar    1  LIG1       -0.0290
     28 C          -5.3211   10.3514    0.0071 C.ar    1  LIG1        0.0594
     29 C          -6.3459    9.4314    0.0079 C.ar    1  LIG1       -0.0063
     30 S          -5.7643    7.8636    0.0073 S.2     1  LIG1       -0.0948
     31 H          -7.6156    9.7105    0.0092 H       1  LIG1        0.0706
     32 H          -2.9179   10.3672    0.0061 H       1  LIG1        0.0642
     33 N          -5.6006   12.7820    0.0065 N.1     1  LIG1       -0.1909
     34 C          -5.4696   11.6429    0.0067 C.1     1  LIG1        0.0997
@<TRIPOS>BOND
     1     8     9    3
     2     9     3    1
     3     6     1    1
     4     7     2    1
     5     2     3   ar
     6     2     1   ar
     7     3     4   ar
     8     1     5   ar
     9     4     5   ar
    10     4    10    1
    11    16    17    3
    12    17    12    1
    13    15    11    1
    14    10    11   ar
    15    10    14   ar
    16    11    12   ar
    17    12    13   ar
    18    14    13   ar
    19    13    18    1
    20    24    25    3
    21    23    19    1
    22    18    19   ar
    23    18    22   ar
    24    25    20    1
    25    19    20   ar
    26    20    21   ar
    27    22    21   ar
    28    21    26    1
    29    32    27    1
    30    26    27   ar
    31    26    30   ar
    32    33    34    3
    33    27    28   ar
    34    34    28    1
    35    28    29   ar
    36    30    29   ar
    37    29    31    1
