@<TRIPOS>MOLECULE
mol_data/noopt/geoms/mol2/5ae5ae-5ae.out
 29 31 0 0 0
SMALL
GASTEIGER

@<TRIPOS>ATOM
      1 C          -2.0792   -1.7080   -0.0002 C.ar    1  LIG1       -0.0225
      2 C          -0.7020   -1.7080   -0.0002 C.ar    1  LIG1       -0.0387
      3 C          -0.1766   -0.3757   -0.0002 C.ar    1  LIG1        0.0399
      4 C          -1.1831    0.5643    0.0006 C.ar    1  LIG1        0.0413
      5 S          -2.6937   -0.1528    0.0006 S.2     1  LIG1       -0.0949
      6 H          -2.8374   -2.7640   -0.0008 H       1  LIG1        0.0694
      7 H           0.0503   -2.7682   -0.0004 H       1  LIG1        0.0635
      8 C           1.0969   -0.1143   -0.0009 C.1     1  LIG1       -0.0685
      9 C           2.2735    0.1272   -0.0015 C.1     1  LIG1       -0.1139
     10 H           3.3217    0.3424   -0.0021 H       1  LIG1        0.1232
     11 C          -1.0166    1.8536    0.0014 C.ar    1  LIG1        0.0289
     12 C           0.1958    2.5069    0.0015 C.ar    1  LIG1       -0.0304
     13 C           0.0263    3.9290    0.0017 C.ar    1  LIG1        0.0405
     14 C          -1.3057    4.2790    0.0026 C.ar    1  LIG1        0.0419
     15 S          -2.2953    2.9311    0.0023 S.2     1  LIG1       -0.0859
     16 H           1.3610    1.9305    0.0013 H       1  LIG1        0.0641
     17 C           1.0233    4.7632    0.0012 C.1     1  LIG1       -0.0685
     18 C           1.9446    5.5340    0.0007 C.1     1  LIG1       -0.1139
     19 H           2.7652    6.2207    0.0002 H       1  LIG1        0.1232
     20 C          -1.7708    5.4930    0.0035 C.ar    1  LIG1        0.0283
     21 C          -1.0134    6.6433    0.0038 C.ar    1  LIG1       -0.0310
     22 C          -1.8373    7.8147    0.0042 C.ar    1  LIG1        0.0323
     23 C          -3.1759    7.4910    0.0050 C.ar    1  LIG1       -0.0083
     24 S          -3.4076    5.8350    0.0046 S.2     1  LIG1       -0.0949
     25 H          -4.1612    8.3391    0.0062 H       1  LIG1        0.0706
     26 H           0.2858    6.6886    0.0035 H       1  LIG1        0.0641
     27 C          -1.3553    9.0221    0.0038 C.1     1  LIG1       -0.0691
     28 C          -0.9100   10.1377    0.0034 C.1     1  LIG1       -0.1139
     29 H          -0.5133   11.1315    0.0030 H       1  LIG1        0.1232
@<TRIPOS>BOND
     1    10     9    1
     2     9     8    3
     3     8     3    1
     4     6     1    1
     5     7     2    1
     6     2     3   ar
     7     2     1   ar
     8     3     4   ar
     9     1     5   ar
    10    19    18    1
    11     4     5   ar
    12     4    11    1
    13    18    17    3
    14    17    13    1
    15    16    12    1
    16    11    12   ar
    17    11    15   ar
    18    12    13   ar
    19    13    14   ar
    20    15    14   ar
    21    14    20    1
    22    29    28    1
    23    28    27    3
    24    26    21    1
    25    20    21   ar
    26    20    24   ar
    27    27    22    1
    28    21    22   ar
    29    22    23   ar
    30    24    23   ar
    31    23    25    1
