@<TRIPOS>MOLECULE
mol_data/noopt/geoms/mol2/5ae5ae5ae-.out
 29 31 0 0 0
SMALL
GASTEIGER

@<TRIPOS>ATOM
      1 C          -2.0792   -1.7080   -0.0002 C.ar    1  LIG1       -0.0225
      2 C          -0.7020   -1.7080   -0.0002 C.ar    1  LIG1       -0.0387
      3 C          -0.1766   -0.3757   -0.0002 C.ar    1  LIG1        0.0399
      4 C          -1.1831    0.5643    0.0006 C.ar    1  LIG1        0.0413
      5 S          -2.6937   -0.1528    0.0006 S.2     1  LIG1       -0.0949
      6 H          -2.8374   -2.7640   -0.0008 H       1  LIG1        0.0694
      7 H           0.0503   -2.7682   -0.0004 H       1  LIG1        0.0635
      8 C           1.0969   -0.1143   -0.0009 C.1     1  LIG1       -0.0685
      9 C           2.2735    0.1272   -0.0015 C.1     1  LIG1       -0.1139
     10 H           3.3217    0.3424   -0.0021 H       1  LIG1        0.1232
     11 C          -1.0166    1.8536    0.0014 C.ar    1  LIG1        0.0289
     12 C           0.1956    2.5069    0.0205 C.ar    1  LIG1       -0.0304
     13 C           0.0262    3.9290    0.0147 C.ar    1  LIG1        0.0405
     14 C          -1.3056    4.2790   -0.0075 C.ar    1  LIG1        0.0419
     15 S          -2.2951    2.9311   -0.0215 S.2     1  LIG1       -0.0859
     16 H           1.3607    1.9305    0.0410 H       1  LIG1        0.0641
     17 C           1.0231    4.7632    0.0291 C.1     1  LIG1       -0.0685
     18 C           1.9443    5.5341    0.0424 C.1     1  LIG1       -0.1139
     19 H           2.7648    6.2207    0.0542 H       1  LIG1        0.1232
     20 C          -1.7706    5.4930   -0.0170 C.ar    1  LIG1        0.0283
     21 C          -1.0134    6.6433   -0.0043 C.ar    1  LIG1       -0.0310
     22 C          -1.8371    7.8147   -0.0210 C.ar    1  LIG1        0.0323
     23 C          -3.1754    7.4910   -0.0446 C.ar    1  LIG1       -0.0083
     24 S          -3.4072    5.8350   -0.0470 S.2     1  LIG1       -0.0949
     25 H          -4.1606    8.3390   -0.0631 H       1  LIG1        0.0706
     26 H           0.2856    6.6886    0.0196 H       1  LIG1        0.0641
     27 C          -1.3552    9.0221   -0.0141 C.1     1  LIG1       -0.0691
     28 C          -0.9099   10.1377   -0.0078 C.1     1  LIG1       -0.1139
     29 H          -0.5132   11.1314   -0.0022 H       1  LIG1        0.1232
@<TRIPOS>BOND
     1    25    23    1
     2    24    23   ar
     3    24    20   ar
     4    23    22   ar
     5    15    14   ar
     6    15    11   ar
     7    22    27    1
     8    22    21   ar
     9    20    14    1
    10    20    21   ar
    11    27    28    3
    12    28    29    1
    13    14    13   ar
    14    21    26    1
    15    10     9    1
    16     9     8    3
    17     8     3    1
    18     6     1    1
    19     7     2    1
    20     1     2   ar
    21     1     5   ar
    22     2     3   ar
    23     3     4   ar
    24     5     4   ar
    25     4    11    1
    26    11    12   ar
    27    13    12   ar
    28    13    17    1
    29    12    16    1
    30    17    18    3
    31    18    19    1
