@<TRIPOS>MOLECULE
mol_data/noopt/geoms/mol2/5ae5ae5ae5ae.out
 38 41 0 0 0
SMALL
GASTEIGER

@<TRIPOS>ATOM
      1 C          -2.0792   -1.7080   -0.0002 C.ar    1  LIG1       -0.0225
      2 C          -0.7020   -1.7080   -0.0002 C.ar    1  LIG1       -0.0387
      3 C          -0.1766   -0.3757   -0.0002 C.ar    1  LIG1        0.0399
      4 C          -1.1831    0.5643    0.0006 C.ar    1  LIG1        0.0413
      5 S          -2.6937   -0.1528    0.0006 S.2     1  LIG1       -0.0949
      6 H          -2.8374   -2.7640   -0.0008 H       1  LIG1        0.0694
      7 H           0.0503   -2.7682   -0.0004 H       1  LIG1        0.0635
      8 C           1.0969   -0.1143   -0.0009 C.1     1  LIG1       -0.0685
      9 C           2.2735    0.1272   -0.0015 C.1     1  LIG1       -0.1139
     10 H           3.3217    0.3424   -0.0021 H       1  LIG1        0.1232
     11 C          -1.0166    1.8536    0.0014 C.ar    1  LIG1        0.0289
     12 C           0.1956    2.5069    0.0205 C.ar    1  LIG1       -0.0304
     13 C           0.0262    3.9290    0.0147 C.ar    1  LIG1        0.0405
     14 C          -1.3056    4.2790   -0.0075 C.ar    1  LIG1        0.0419
     15 S          -2.2951    2.9311   -0.0215 S.2     1  LIG1       -0.0859
     16 H           1.3607    1.9305    0.0410 H       1  LIG1        0.0641
     17 C           1.0231    4.7632    0.0291 C.1     1  LIG1       -0.0685
     18 C           1.9443    5.5341    0.0424 C.1     1  LIG1       -0.1139
     19 H           2.7648    6.2207    0.0542 H       1  LIG1        0.1232
     20 C          -1.7706    5.4930   -0.0170 C.ar    1  LIG1        0.0289
     21 C          -1.0132    6.6432   -0.0232 C.ar    1  LIG1       -0.0304
     22 C          -1.8369    7.8147   -0.0340 C.ar    1  LIG1        0.0405
     23 C          -3.1756    7.4910   -0.0345 C.ar    1  LIG1        0.0419
     24 S          -3.4074    5.8350   -0.0232 S.2     1  LIG1       -0.0859
     25 H           0.2860    6.6885   -0.0202 H       1  LIG1        0.0641
     26 C          -1.3549    9.0220   -0.0421 C.1     1  LIG1       -0.0685
     27 C          -0.9095   10.1375   -0.0495 C.1     1  LIG1       -0.1139
     28 H          -0.5127   11.1312   -0.0562 H       1  LIG1        0.1232
     29 C          -4.1608    8.3391   -0.0426 C.ar    1  LIG1        0.0283
     30 C          -4.0399    9.7109   -0.0290 C.ar    1  LIG1       -0.0310
     31 C          -5.3207   10.3514   -0.0442 C.ar    1  LIG1        0.0323
     32 C          -6.3454    9.4315   -0.0677 C.ar    1  LIG1       -0.0083
     33 S          -5.7637    7.8638   -0.0716 S.2     1  LIG1       -0.0949
     34 H          -7.6149    9.7107   -0.0849 H       1  LIG1        0.0706
     35 H          -2.9179   10.3671   -0.0056 H       1  LIG1        0.0641
     36 C          -5.4693   11.6429   -0.0363 C.1     1  LIG1       -0.0691
     37 C          -5.6065   12.8362   -0.0290 C.1     1  LIG1       -0.1139
     38 H          -5.7288   13.8992   -0.0226 H       1  LIG1        0.1232
@<TRIPOS>BOND
     1    34    32    1
     2    33    32   ar
     3    33    29   ar
     4    32    31   ar
     5    28    27    1
     6    27    26    3
     7    31    36    1
     8    31    30   ar
     9    29    23    1
    10    29    30   ar
    11    26    22    1
    12    36    37    3
    13    23    22   ar
    14    23    24   ar
    15    22    21   ar
    16    37    38    1
    17    30    35    1
    18    21    25    1
    19    21    20   ar
    20    24    20   ar
    21    15    14   ar
    22    15    11   ar
    23    20    14    1
    24    14    13   ar
    25    10     9    1
    26     9     8    3
    27     8     3    1
    28     6     1    1
    29     7     2    1
    30     2     1   ar
    31     2     3   ar
    32     1     5   ar
    33     3     4   ar
    34     5     4   ar
    35     4    11    1
    36    11    12   ar
    37    13    12   ar
    38    13    17    1
    39    12    16    1
    40    17    18    3
    41    18    19    1
