@<TRIPOS>MOLECULE
mol_data/noopt/geoms/mol2/5ae5ae-5ae-.out
 29 31 0 0 0
SMALL
GASTEIGER

@<TRIPOS>ATOM
      1 C          -2.0792   -1.7080   -0.0002 C.ar    1  LIG1       -0.0225
      2 C          -0.7020   -1.7080   -0.0002 C.ar    1  LIG1       -0.0387
      3 C          -0.1766   -0.3757   -0.0002 C.ar    1  LIG1        0.0399
      4 C          -1.1831    0.5643    0.0006 C.ar    1  LIG1        0.0413
      5 S          -2.6937   -0.1528    0.0006 S.2     1  LIG1       -0.0949
      6 H          -2.8374   -2.7640   -0.0008 H       1  LIG1        0.0694
      7 H           0.0503   -2.7682   -0.0004 H       1  LIG1        0.0635
      8 C           1.0969   -0.1143   -0.0009 C.1     1  LIG1       -0.0685
      9 C           2.2735    0.1272   -0.0015 C.1     1  LIG1       -0.1139
     10 H           3.3217    0.3424   -0.0021 H       1  LIG1        0.1232
     11 C          -1.0166    1.8536    0.0014 C.ar    1  LIG1        0.0289
     12 C           0.1958    2.5069    0.0015 C.ar    1  LIG1       -0.0304
     13 C           0.0263    3.9290    0.0017 C.ar    1  LIG1        0.0405
     14 C          -1.3057    4.2790    0.0026 C.ar    1  LIG1        0.0419
     15 S          -2.2953    2.9311    0.0023 S.2     1  LIG1       -0.0859
     16 H           1.3610    1.9305    0.0013 H       1  LIG1        0.0641
     17 C           1.0233    4.7632    0.0012 C.1     1  LIG1       -0.0685
     18 C           1.9446    5.5340    0.0007 C.1     1  LIG1       -0.1139
     19 H           2.7652    6.2207    0.0002 H       1  LIG1        0.1232
     20 C          -1.7708    5.4930    0.0035 C.ar    1  LIG1        0.0283
     21 C          -1.0136    6.6432    0.0227 C.ar    1  LIG1       -0.0310
     22 C          -1.8374    7.8147    0.0172 C.ar    1  LIG1        0.0323
     23 C          -3.1758    7.4910   -0.0051 C.ar    1  LIG1       -0.0083
     24 S          -3.4074    5.8351   -0.0192 S.2     1  LIG1       -0.0949
     25 H          -4.1610    8.3391   -0.0144 H       1  LIG1        0.0706
     26 H           0.2855    6.6885    0.0432 H       1  LIG1        0.0641
     27 C          -1.3555    9.0220    0.0317 C.1     1  LIG1       -0.0691
     28 C          -0.9102   10.1376    0.0451 C.1     1  LIG1       -0.1139
     29 H          -0.5136   11.1313    0.0570 H       1  LIG1        0.1232
@<TRIPOS>BOND
     1    24    23   ar
     2    24    20   ar
     3    25    23    1
     4    23    22   ar
     5    10     9    1
     6     9     8    3
     7     8     3    1
     8     6     1    1
     9     7     2    1
    10     2     3   ar
    11     2     1   ar
    12     3     4   ar
    13     1     5   ar
    14    19    18    1
    15     4     5   ar
    16     4    11    1
    17    18    17    3
    18    17    13    1
    19    16    12    1
    20    11    12   ar
    21    11    15   ar
    22    12    13   ar
    23    13    14   ar
    24    15    14   ar
    25    14    20    1
    26    20    21   ar
    27    22    21   ar
    28    22    27    1
    29    21    26    1
    30    27    28    3
    31    28    29    1
