@<TRIPOS>MOLECULE
mol_data/noopt/geoms/mol2/5ae5ae5ae-5ae-.out
 38 41 0 0 0
SMALL
GASTEIGER

@<TRIPOS>ATOM
      1 C          -2.0792   -1.7080   -0.0002 C.ar    1  LIG1       -0.0225
      2 C          -0.7020   -1.7080   -0.0002 C.ar    1  LIG1       -0.0387
      3 C          -0.1766   -0.3757   -0.0002 C.ar    1  LIG1        0.0399
      4 C          -1.1831    0.5643    0.0006 C.ar    1  LIG1        0.0413
      5 S          -2.6937   -0.1528    0.0006 S.2     1  LIG1       -0.0949
      6 H          -2.8374   -2.7640   -0.0008 H       1  LIG1        0.0694
      7 H           0.0503   -2.7682   -0.0004 H       1  LIG1        0.0635
      8 C           1.0969   -0.1143   -0.0009 C.1     1  LIG1       -0.0685
      9 C           2.2735    0.1272   -0.0015 C.1     1  LIG1       -0.1139
     10 H           3.3217    0.3424   -0.0021 H       1  LIG1        0.1232
     11 C          -1.0166    1.8536    0.0014 C.ar    1  LIG1        0.0289
     12 C           0.1956    2.5069    0.0205 C.ar    1  LIG1       -0.0304
     13 C           0.0262    3.9290    0.0147 C.ar    1  LIG1        0.0405
     14 C          -1.3056    4.2790   -0.0075 C.ar    1  LIG1        0.0419
     15 S          -2.2951    2.9311   -0.0215 S.2     1  LIG1       -0.0859
     16 H           1.3607    1.9305    0.0410 H       1  LIG1        0.0641
     17 C           1.0231    4.7632    0.0291 C.1     1  LIG1       -0.0685
     18 C           1.9443    5.5341    0.0424 C.1     1  LIG1       -0.1139
     19 H           2.7648    6.2207    0.0542 H       1  LIG1        0.1232
     20 C          -1.7706    5.4930   -0.0170 C.ar    1  LIG1        0.0289
     21 C          -1.0134    6.6433   -0.0043 C.ar    1  LIG1       -0.0304
     22 C          -1.8371    7.8147   -0.0210 C.ar    1  LIG1        0.0405
     23 C          -3.1754    7.4910   -0.0446 C.ar    1  LIG1        0.0419
     24 S          -3.4072    5.8350   -0.0470 S.2     1  LIG1       -0.0859
     25 H           0.2856    6.6886    0.0196 H       1  LIG1        0.0641
     26 C          -1.3552    9.0221   -0.0141 C.1     1  LIG1       -0.0685
     27 C          -0.9099   10.1377   -0.0078 C.1     1  LIG1       -0.1139
     28 H          -0.5132   11.1314   -0.0022 H       1  LIG1        0.1232
     29 C          -4.1606    8.3390   -0.0631 C.ar    1  LIG1        0.0283
     30 C          -4.0394    9.7108   -0.0749 C.ar    1  LIG1       -0.0310
     31 C          -5.3202   10.3513   -0.0953 C.ar    1  LIG1        0.0323
     32 C          -6.3451    9.4313   -0.0971 C.ar    1  LIG1       -0.0083
     33 S          -5.7637    7.8636   -0.0756 S.2     1  LIG1       -0.0949
     34 H          -7.6146    9.7105   -0.1131 H       1  LIG1        0.0706
     35 H          -2.9172   10.3670   -0.0689 H       1  LIG1        0.0641
     36 C          -5.4685   11.6427   -0.1100 C.1     1  LIG1       -0.0691
     37 C          -5.6055   12.8360   -0.1237 C.1     1  LIG1       -0.1139
     38 H          -5.7276   13.8989   -0.1358 H       1  LIG1        0.1232
@<TRIPOS>BOND
     1    38    37    1
     2    37    36    3
     3    34    32    1
     4    36    31    1
     5    32    31   ar
     6    32    33   ar
     7    31    30   ar
     8    33    29   ar
     9    30    35    1
    10    30    29   ar
    11    29    23    1
    12    24    23   ar
    13    24    20   ar
    14    23    22   ar
    15    15    14   ar
    16    15    11   ar
    17    22    26    1
    18    22    21   ar
    19    20    14    1
    20    20    21   ar
    21    26    27    3
    22    27    28    1
    23    14    13   ar
    24    21    25    1
    25    10     9    1
    26     9     8    3
    27     8     3    1
    28     6     1    1
    29     7     2    1
    30     2     3   ar
    31     2     1   ar
    32     3     4   ar
    33     1     5   ar
    34     5     4   ar
    35     4    11    1
    36    11    12   ar
    37    13    12   ar
    38    13    17    1
    39    12    16    1
    40    17    18    3
    41    18    19    1
