@<TRIPOS>MOLECULE
mol_data/noopt/geoms/mol2/5af5af.out
 18 19 0 0 0
SMALL
GASTEIGER

@<TRIPOS>ATOM
      1 C          -2.0792   -1.7080   -0.0002 C.ar    1  LIG1       -0.0202
      2 C          -0.7020   -1.7080   -0.0002 C.ar    1  LIG1       -0.0125
      3 C          -0.1766   -0.3757   -0.0002 C.ar    1  LIG1        0.1321
      4 C          -1.1831    0.5643    0.0006 C.ar    1  LIG1        0.0674
      5 S          -2.6937   -0.1528    0.0006 S.2     1  LIG1       -0.0924
      6 H          -2.8374   -2.7640   -0.0008 H       1  LIG1        0.0695
      7 H           0.0503   -2.7682   -0.0004 H       1  LIG1        0.0659
      8 O           1.0969   -0.1143   -0.0009 O.3     1  LIG1       -0.5056
      9 H           1.2288    0.8366   -0.0011 H       1  LIG1        0.2922
     10 C          -1.0166    1.8536    0.0014 C.ar    1  LIG1        0.0330
     11 C           0.1956    2.5069    0.0205 C.ar    1  LIG1       -0.0047
     12 C           0.0262    3.9290    0.0147 C.ar    1  LIG1        0.1245
     13 C          -1.3056    4.2790   -0.0075 C.ar    1  LIG1        0.0178
     14 S          -2.2951    2.9311   -0.0215 S.2     1  LIG1       -0.0923
     15 H          -1.7706    5.4930   -0.0170 H       1  LIG1        0.0730
     16 H           1.3607    1.9305    0.0410 H       1  LIG1        0.0666
     17 O           1.0231    4.7633    0.0291 O.3     1  LIG1       -0.5062
     18 H           0.6881    5.6629    0.0327 H       1  LIG1        0.2922
@<TRIPOS>BOND
     1    14    13   ar
     2    14    10   ar
     3    15    13    1
     4    13    12   ar
     5     9     8    1
     6     8     3    1
     7     6     1    1
     8     7     2    1
     9     2     3   ar
    10     2     1   ar
    11     3     4   ar
    12     1     5   ar
    13     4     5   ar
    14     4    10    1
    15    10    11   ar
    16    12    11   ar
    17    12    17    1
    18    11    16    1
    19    17    18    1
