@<TRIPOS>MOLECULE
mol_data/noopt/geoms/mol2/5af5af5af.out
 26 28 0 0 0
SMALL
GASTEIGER

@<TRIPOS>ATOM
      1 C          -2.0792   -1.7080   -0.0002 C.ar    1  LIG1       -0.0202
      2 C          -0.7020   -1.7080   -0.0002 C.ar    1  LIG1       -0.0125
      3 C          -0.1766   -0.3757   -0.0002 C.ar    1  LIG1        0.1321
      4 C          -1.1831    0.5643    0.0006 C.ar    1  LIG1        0.0674
      5 S          -2.6937   -0.1528    0.0006 S.2     1  LIG1       -0.0924
      6 H          -2.8374   -2.7640   -0.0008 H       1  LIG1        0.0695
      7 H           0.0503   -2.7682   -0.0004 H       1  LIG1        0.0659
      8 O           1.0969   -0.1143   -0.0009 O.3     1  LIG1       -0.5056
      9 H           1.2288    0.8366   -0.0011 H       1  LIG1        0.2922
     10 C          -1.0166    1.8536    0.0014 C.ar    1  LIG1        0.0336
     11 C           0.1956    2.5069    0.0205 C.ar    1  LIG1       -0.0041
     12 C           0.0262    3.9290    0.0147 C.ar    1  LIG1        0.1327
     13 C          -1.3056    4.2790   -0.0075 C.ar    1  LIG1        0.0679
     14 S          -2.2951    2.9311   -0.0215 S.2     1  LIG1       -0.0833
     15 H           1.3607    1.9305    0.0410 H       1  LIG1        0.0666
     16 O           1.0231    4.7633    0.0291 O.3     1  LIG1       -0.5056
     17 H           0.6881    5.6629    0.0327 H       1  LIG1        0.2922
     18 C          -1.7706    5.4930   -0.0170 C.ar    1  LIG1        0.0330
     19 C          -1.0132    6.6432   -0.0232 C.ar    1  LIG1       -0.0047
     20 C          -1.8369    7.8147   -0.0340 C.ar    1  LIG1        0.1245
     21 C          -3.1756    7.4910   -0.0345 C.ar    1  LIG1        0.0178
     22 S          -3.4074    5.8350   -0.0232 S.2     1  LIG1       -0.0923
     23 H          -4.1608    8.3391   -0.0426 H       1  LIG1        0.0730
     24 H           0.2860    6.6885   -0.0202 H       1  LIG1        0.0666
     25 O          -1.3549    9.0220   -0.0421 O.3     1  LIG1       -0.5062
     26 H          -2.0765    9.6551   -0.0441 H       1  LIG1        0.2922
@<TRIPOS>BOND
     1    26    25    1
     2    23    21    1
     3    25    20    1
     4    21    20   ar
     5    21    22   ar
     6    20    19   ar
     7    19    24    1
     8    19    18   ar
     9    22    18   ar
    10    14    13   ar
    11    14    10   ar
    12    18    13    1
    13    13    12   ar
    14     9     8    1
    15     8     3    1
    16     6     1    1
    17     7     2    1
    18     1     2   ar
    19     1     5   ar
    20     3     2   ar
    21     3     4   ar
    22     5     4   ar
    23     4    10    1
    24    10    11   ar
    25    12    11   ar
    26    12    16    1
    27    11    15    1
    28    16    17    1
