@<TRIPOS>MOLECULE
mol_data/noopt/geoms/mol2/5af5af-5af5af-.out
 34 37 0 0 0
SMALL
GASTEIGER

@<TRIPOS>ATOM
      1 C          -2.0792   -1.7080   -0.0002 C.ar    1  LIG1       -0.0202
      2 C          -0.7020   -1.7080   -0.0002 C.ar    1  LIG1       -0.0125
      3 C          -0.1766   -0.3757   -0.0002 C.ar    1  LIG1        0.1321
      4 C          -1.1831    0.5643    0.0006 C.ar    1  LIG1        0.0674
      5 S          -2.6937   -0.1528    0.0006 S.2     1  LIG1       -0.0924
      6 H          -2.8374   -2.7640   -0.0008 H       1  LIG1        0.0695
      7 H           0.0503   -2.7682   -0.0004 H       1  LIG1        0.0659
      8 O           1.0969   -0.1143   -0.0009 O.3     1  LIG1       -0.5056
      9 H           1.2288    0.8366   -0.0011 H       1  LIG1        0.2922
     10 C          -1.0166    1.8536    0.0014 C.ar    1  LIG1        0.0336
     11 C           0.1958    2.5069    0.0015 C.ar    1  LIG1       -0.0041
     12 C           0.0263    3.9290    0.0017 C.ar    1  LIG1        0.1327
     13 C          -1.3057    4.2790    0.0026 C.ar    1  LIG1        0.0680
     14 S          -2.2953    2.9311    0.0023 S.2     1  LIG1       -0.0833
     15 H           1.3610    1.9305    0.0013 H       1  LIG1        0.0666
     16 O           1.0233    4.7633    0.0012 O.3     1  LIG1       -0.5056
     17 H           0.6884    5.6629    0.0010 H       1  LIG1        0.2922
     18 C          -1.7708    5.4930    0.0035 C.ar    1  LIG1        0.0336
     19 C          -1.0134    6.6433    0.0038 C.ar    1  LIG1       -0.0041
     20 C          -1.8373    7.8147    0.0042 C.ar    1  LIG1        0.1327
     21 C          -3.1759    7.4910    0.0050 C.ar    1  LIG1        0.0679
     22 S          -3.4076    5.8350    0.0046 S.2     1  LIG1       -0.0833
     23 H           0.2858    6.6886    0.0035 H       1  LIG1        0.0666
     24 O          -1.3553    9.0221    0.0038 O.3     1  LIG1       -0.5056
     25 H          -2.0770    9.6552    0.0036 H       1  LIG1        0.2922
     26 C          -4.1612    8.3391    0.0062 C.ar    1  LIG1        0.0330
     27 C          -4.0401    9.7109    0.0065 C.ar    1  LIG1       -0.0047
     28 C          -5.3211   10.3514    0.0071 C.ar    1  LIG1        0.1245
     29 C          -6.3459    9.4314    0.0079 C.ar    1  LIG1        0.0178
     30 S          -5.7643    7.8636    0.0073 S.2     1  LIG1       -0.0923
     31 H          -7.6156    9.7105    0.0092 H       1  LIG1        0.0730
     32 H          -2.9179   10.3672    0.0061 H       1  LIG1        0.0666
     33 O          -5.4696   11.6429    0.0067 O.3     1  LIG1       -0.5062
     34 H          -6.4052   11.8579    0.0067 H       1  LIG1        0.2922
@<TRIPOS>BOND
     1     9     8    1
     2     8     3    1
     3     6     1    1
     4     7     2    1
     5     2     3   ar
     6     2     1   ar
     7     3     4   ar
     8     1     5   ar
     9     4     5   ar
    10     4    10    1
    11    17    16    1
    12    16    12    1
    13    15    11    1
    14    10    11   ar
    15    10    14   ar
    16    11    12   ar
    17    12    13   ar
    18    14    13   ar
    19    13    18    1
    20    23    19    1
    21    18    19   ar
    22    18    22   ar
    23    25    24    1
    24    24    20    1
    25    19    20   ar
    26    20    21   ar
    27    22    21   ar
    28    21    26    1
    29    32    27    1
    30    26    27   ar
    31    26    30   ar
    32    27    28   ar
    33    34    33    1
    34    33    28    1
    35    28    29   ar
    36    30    29   ar
    37    29    31    1
