@<TRIPOS>MOLECULE
mol_data/noopt/geoms/mol2/5af5af-.out
 18 19 0 0 0
SMALL
GASTEIGER

@<TRIPOS>ATOM
      1 C          -2.0792   -1.7080   -0.0002 C.ar    1  LIG1       -0.0202
      2 C          -0.7020   -1.7080   -0.0002 C.ar    1  LIG1       -0.0125
      3 C          -0.1766   -0.3757   -0.0002 C.ar    1  LIG1        0.1321
      4 C          -1.1831    0.5643    0.0006 C.ar    1  LIG1        0.0674
      5 S          -2.6937   -0.1528    0.0006 S.2     1  LIG1       -0.0924
      6 H          -2.8374   -2.7640   -0.0008 H       1  LIG1        0.0695
      7 H           0.0503   -2.7682   -0.0004 H       1  LIG1        0.0659
      8 O           1.0969   -0.1143   -0.0009 O.3     1  LIG1       -0.5056
      9 H           1.2288    0.8366   -0.0011 H       1  LIG1        0.2922
     10 C          -1.0166    1.8536    0.0014 C.ar    1  LIG1        0.0330
     11 C           0.1958    2.5069    0.0015 C.ar    1  LIG1       -0.0047
     12 C           0.0263    3.9290    0.0017 C.ar    1  LIG1        0.1245
     13 C          -1.3057    4.2790    0.0026 C.ar    1  LIG1        0.0178
     14 S          -2.2953    2.9311    0.0023 S.2     1  LIG1       -0.0923
     15 H          -1.7708    5.4930    0.0035 H       1  LIG1        0.0730
     16 H           1.3610    1.9305    0.0013 H       1  LIG1        0.0666
     17 O           1.0233    4.7633    0.0012 O.3     1  LIG1       -0.5062
     18 H           0.6884    5.6629    0.0010 H       1  LIG1        0.2922
@<TRIPOS>BOND
     1     9     8    1
     2     8     3    1
     3     6     1    1
     4     7     2    1
     5     2     3   ar
     6     2     1   ar
     7     3     4   ar
     8     1     5   ar
     9     4     5   ar
    10     4    10    1
    11    18    17    1
    12    17    12    1
    13    16    11    1
    14    10    11   ar
    15    10    14   ar
    16    11    12   ar
    17    12    13   ar
    18    14    13   ar
    19    13    15    1
