@<TRIPOS>MOLECULE
mol_data/noopt/geoms/mol2/5af5af5af-5af-.out
 34 37 0 0 0
SMALL
GASTEIGER

@<TRIPOS>ATOM
      1 C          -2.0792   -1.7080   -0.0002 C.ar    1  LIG1       -0.0202
      2 C          -0.7020   -1.7080   -0.0002 C.ar    1  LIG1       -0.0125
      3 C          -0.1766   -0.3757   -0.0002 C.ar    1  LIG1        0.1321
      4 C          -1.1831    0.5643    0.0006 C.ar    1  LIG1        0.0674
      5 S          -2.6937   -0.1528    0.0006 S.2     1  LIG1       -0.0924
      6 H          -2.8374   -2.7640   -0.0008 H       1  LIG1        0.0695
      7 H           0.0503   -2.7682   -0.0004 H       1  LIG1        0.0659
      8 O           1.0969   -0.1143   -0.0009 O.3     1  LIG1       -0.5056
      9 H           1.2288    0.8366   -0.0011 H       1  LIG1        0.2922
     10 C          -1.0166    1.8536    0.0014 C.ar    1  LIG1        0.0336
     11 C           0.1956    2.5069    0.0205 C.ar    1  LIG1       -0.0041
     12 C           0.0262    3.9290    0.0147 C.ar    1  LIG1        0.1327
     13 C          -1.3056    4.2790   -0.0075 C.ar    1  LIG1        0.0680
     14 S          -2.2951    2.9311   -0.0215 S.2     1  LIG1       -0.0833
     15 H           1.3607    1.9305    0.0410 H       1  LIG1        0.0666
     16 O           1.0231    4.7633    0.0291 O.3     1  LIG1       -0.5056
     17 H           0.6881    5.6629    0.0327 H       1  LIG1        0.2922
     18 C          -1.7706    5.4930   -0.0170 C.ar    1  LIG1        0.0336
     19 C          -1.0134    6.6433   -0.0043 C.ar    1  LIG1       -0.0041
     20 C          -1.8371    7.8147   -0.0210 C.ar    1  LIG1        0.1327
     21 C          -3.1754    7.4910   -0.0446 C.ar    1  LIG1        0.0679
     22 S          -3.4072    5.8350   -0.0470 S.2     1  LIG1       -0.0833
     23 H           0.2856    6.6886    0.0196 H       1  LIG1        0.0666
     24 O          -1.3551    9.0221   -0.0141 O.3     1  LIG1       -0.5056
     25 H          -2.0768    9.6552   -0.0124 H       1  LIG1        0.2922
     26 C          -4.1606    8.3390   -0.0631 C.ar    1  LIG1        0.0330
     27 C          -4.0394    9.7108   -0.0749 C.ar    1  LIG1       -0.0047
     28 C          -5.3202   10.3513   -0.0953 C.ar    1  LIG1        0.1245
     29 C          -6.3451    9.4313   -0.0971 C.ar    1  LIG1        0.0178
     30 S          -5.7637    7.8636   -0.0756 S.2     1  LIG1       -0.0923
     31 H          -7.6146    9.7105   -0.1131 H       1  LIG1        0.0730
     32 H          -2.9172   10.3670   -0.0689 H       1  LIG1        0.0666
     33 O          -5.4685   11.6428   -0.1101 O.3     1  LIG1       -0.5062
     34 H          -6.4041   11.8578   -0.1137 H       1  LIG1        0.2922
@<TRIPOS>BOND
     1    34    33    1
     2    31    29    1
     3    33    28    1
     4    29    28   ar
     5    29    30   ar
     6    28    27   ar
     7    30    26   ar
     8    27    32    1
     9    27    26   ar
    10    26    21    1
    11    22    21   ar
    12    22    18   ar
    13    21    20   ar
    14    14    13   ar
    15    14    10   ar
    16    20    24    1
    17    20    19   ar
    18    18    13    1
    19    18    19   ar
    20    24    25    1
    21    13    12   ar
    22    19    23    1
    23     9     8    1
    24     8     3    1
    25     6     1    1
    26     7     2    1
    27     2     3   ar
    28     2     1   ar
    29     3     4   ar
    30     1     5   ar
    31     5     4   ar
    32     4    10    1
    33    10    11   ar
    34    12    11   ar
    35    12    16    1
    36    11    15    1
    37    16    17    1
