@<TRIPOS>MOLECULE
mol_data/noopt/geoms/mol2/5ag5ag-.out
 18 19 0 0 0
SMALL
GASTEIGER

@<TRIPOS>ATOM
      1 C          -2.0792   -1.7080   -0.0002 C.ar    1  LIG1       -0.0227
      2 C          -0.7020   -1.7080   -0.0002 C.ar    1  LIG1       -0.0409
      3 C          -0.1766   -0.3757   -0.0002 C.ar    1  LIG1        0.0200
      4 C          -1.1831    0.5643    0.0006 C.ar    1  LIG1        0.0390
      5 S          -2.6937   -0.1528    0.0006 S.2     1  LIG1       -0.0950
      6 H          -2.8374   -2.7640   -0.0008 H       1  LIG1        0.0694
      7 H           0.0503   -2.7682   -0.0004 H       1  LIG1        0.0634
      8 S           1.0968   -0.1143   -0.0009 S.3     1  LIG1       -0.1415
      9 H           1.2768    1.1833   -0.0011 H       1  LIG1        0.1071
     10 C          -1.0166    1.8536    0.0014 C.ar    1  LIG1        0.0280
     11 C           0.1958    2.5069    0.0015 C.ar    1  LIG1       -0.0332
     12 C           0.0263    3.9290    0.0017 C.ar    1  LIG1        0.0124
     13 C          -1.3057    4.2790    0.0026 C.ar    1  LIG1       -0.0105
     14 S          -2.2953    2.9311    0.0023 S.2     1  LIG1       -0.0950
     15 H          -1.7708    5.4930    0.0035 H       1  LIG1        0.0704
     16 H           1.3610    1.9305    0.0013 H       1  LIG1        0.0640
     17 S           1.0233    4.7632    0.0012 S.3     1  LIG1       -0.1421
     18 H           0.5662    5.9909    0.0010 H       1  LIG1        0.1071
@<TRIPOS>BOND
     1     9     8    1
     2     8     3    1
     3     6     1    1
     4     7     2    1
     5     2     3   ar
     6     2     1   ar
     7     3     4   ar
     8     1     5   ar
     9     4     5   ar
    10     4    10    1
    11    18    17    1
    12    17    12    1
    13    16    11    1
    14    10    11   ar
    15    10    14   ar
    16    11    12   ar
    17    12    13   ar
    18    14    13   ar
    19    13    15    1
