@<TRIPOS>MOLECULE
mol_data/noopt/geoms/mol2/5ag5ag-5ag5ag.out
 34 37 0 0 0
SMALL
GASTEIGER

@<TRIPOS>ATOM
      1 C          -2.0792   -1.7080   -0.0002 C.ar    1  LIG1       -0.0227
      2 C          -0.7020   -1.7080   -0.0002 C.ar    1  LIG1       -0.0409
      3 C          -0.1766   -0.3757   -0.0002 C.ar    1  LIG1        0.0200
      4 C          -1.1831    0.5643    0.0006 C.ar    1  LIG1        0.0391
      5 S          -2.6937   -0.1528    0.0006 S.2     1  LIG1       -0.0950
      6 H          -2.8374   -2.7640   -0.0008 H       1  LIG1        0.0694
      7 H           0.0503   -2.7682   -0.0004 H       1  LIG1        0.0634
      8 S           1.0968   -0.1143   -0.0009 S.3     1  LIG1       -0.1415
      9 H           1.2768    1.1833   -0.0011 H       1  LIG1        0.1071
     10 C          -1.0166    1.8536    0.0014 C.ar    1  LIG1        0.0286
     11 C           0.1958    2.5069    0.0015 C.ar    1  LIG1       -0.0326
     12 C           0.0263    3.9290    0.0017 C.ar    1  LIG1        0.0206
     13 C          -1.3057    4.2790    0.0026 C.ar    1  LIG1        0.0397
     14 S          -2.2953    2.9311    0.0023 S.2     1  LIG1       -0.0861
     15 H           1.3610    1.9305    0.0013 H       1  LIG1        0.0640
     16 S           1.0233    4.7632    0.0012 S.3     1  LIG1       -0.1415
     17 H           0.5662    5.9909    0.0010 H       1  LIG1        0.1071
     18 C          -1.7708    5.4930    0.0035 C.ar    1  LIG1        0.0286
     19 C          -1.0134    6.6433    0.0038 C.ar    1  LIG1       -0.0326
     20 C          -1.8373    7.8147    0.0042 C.ar    1  LIG1        0.0206
     21 C          -3.1759    7.4910    0.0050 C.ar    1  LIG1        0.0397
     22 S          -3.4076    5.8350    0.0046 S.2     1  LIG1       -0.0861
     23 H           0.2858    6.6886    0.0035 H       1  LIG1        0.0640
     24 S          -1.3553    9.0221    0.0038 S.3     1  LIG1       -0.1415
     25 H          -2.3401    9.8860    0.0036 H       1  LIG1        0.1071
     26 C          -4.1612    8.3391    0.0062 C.ar    1  LIG1        0.0280
     27 C          -4.0402    9.7108    0.0254 C.ar    1  LIG1       -0.0332
     28 C          -5.3212   10.3513    0.0201 C.ar    1  LIG1        0.0124
     29 C          -6.3459    9.4314   -0.0022 C.ar    1  LIG1       -0.0105
     30 S          -5.7642    7.8638   -0.0165 S.2     1  LIG1       -0.0950
     31 H          -7.6155    9.7107   -0.0114 H       1  LIG1        0.0704
     32 H          -2.9181   10.3669    0.0458 H       1  LIG1        0.0640
     33 S          -5.4697   11.6427    0.0347 S.3     1  LIG1       -0.1421
     34 H          -6.7465   11.9359    0.0396 H       1  LIG1        0.1071
@<TRIPOS>BOND
     1    30    29   ar
     2    30    26   ar
     3    31    29    1
     4    29    28   ar
     5     9     8    1
     6     8     3    1
     7     6     1    1
     8     7     2    1
     9     2     3   ar
    10     2     1   ar
    11     3     4   ar
    12     1     5   ar
    13     4     5   ar
    14     4    10    1
    15    17    16    1
    16    16    12    1
    17    15    11    1
    18    10    11   ar
    19    10    14   ar
    20    11    12   ar
    21    12    13   ar
    22    14    13   ar
    23    13    18    1
    24    23    19    1
    25    18    19   ar
    26    18    22   ar
    27    25    24    1
    28    24    20    1
    29    19    20   ar
    30    20    21   ar
    31    22    21   ar
    32    21    26    1
    33    26    27   ar
    34    28    27   ar
    35    28    33    1
    36    27    32    1
    37    33    34    1
