@<TRIPOS>MOLECULE
mol_data/noopt/geoms/mol2/5ag5ag5ag5ag-.out
 34 37 0 0 0
SMALL
GASTEIGER

@<TRIPOS>ATOM
      1 C          -2.0792   -1.7080   -0.0002 C.ar    1  LIG1       -0.0227
      2 C          -0.7020   -1.7080   -0.0002 C.ar    1  LIG1       -0.0409
      3 C          -0.1766   -0.3757   -0.0002 C.ar    1  LIG1        0.0200
      4 C          -1.1831    0.5643    0.0006 C.ar    1  LIG1        0.0391
      5 S          -2.6937   -0.1528    0.0006 S.2     1  LIG1       -0.0950
      6 H          -2.8374   -2.7640   -0.0008 H       1  LIG1        0.0694
      7 H           0.0503   -2.7682   -0.0004 H       1  LIG1        0.0634
      8 S           1.0968   -0.1143   -0.0009 S.3     1  LIG1       -0.1415
      9 H           1.2768    1.1833   -0.0011 H       1  LIG1        0.1071
     10 C          -1.0166    1.8536    0.0014 C.ar    1  LIG1        0.0286
     11 C           0.1956    2.5069    0.0205 C.ar    1  LIG1       -0.0326
     12 C           0.0262    3.9290    0.0147 C.ar    1  LIG1        0.0206
     13 C          -1.3056    4.2790   -0.0075 C.ar    1  LIG1        0.0397
     14 S          -2.2951    2.9311   -0.0215 S.2     1  LIG1       -0.0861
     15 H           1.3607    1.9305    0.0410 H       1  LIG1        0.0640
     16 S           1.0231    4.7632    0.0291 S.3     1  LIG1       -0.1415
     17 H           0.5659    5.9908    0.0339 H       1  LIG1        0.1071
     18 C          -1.7706    5.4930   -0.0170 C.ar    1  LIG1        0.0286
     19 C          -1.0132    6.6432   -0.0232 C.ar    1  LIG1       -0.0326
     20 C          -1.8369    7.8147   -0.0340 C.ar    1  LIG1        0.0206
     21 C          -3.1756    7.4910   -0.0345 C.ar    1  LIG1        0.0397
     22 S          -3.4074    5.8350   -0.0232 S.2     1  LIG1       -0.0861
     23 H           0.2860    6.6885   -0.0202 H       1  LIG1        0.0640
     24 S          -1.3549    9.0219   -0.0421 S.3     1  LIG1       -0.1415
     25 H          -2.3396    9.8859   -0.0448 H       1  LIG1        0.1071
     26 C          -4.1608    8.3391   -0.0426 C.ar    1  LIG1        0.0280
     27 C          -4.0397    9.7110   -0.0479 C.ar    1  LIG1       -0.0332
     28 C          -5.3206   10.3514   -0.0572 C.ar    1  LIG1        0.0124
     29 C          -6.3455    9.4315   -0.0576 C.ar    1  LIG1       -0.0105
     30 S          -5.7640    7.8637   -0.0478 S.2     1  LIG1       -0.0950
     31 H          -7.6151    9.7107   -0.0644 H       1  LIG1        0.0704
     32 H          -2.9175   10.3672   -0.0453 H       1  LIG1        0.0640
     33 S          -5.4690   11.6429   -0.0642 S.3     1  LIG1       -0.1421
     34 H          -6.7457   11.9363   -0.0666 H       1  LIG1        0.1071
@<TRIPOS>BOND
     1    34    33    1
     2    31    29    1
     3    33    28    1
     4    29    28   ar
     5    29    30   ar
     6    28    27   ar
     7    27    32    1
     8    27    26   ar
     9    30    26   ar
    10    25    24    1
    11    26    21    1
    12    24    20    1
    13    21    20   ar
    14    21    22   ar
    15    20    19   ar
    16    19    23    1
    17    19    18   ar
    18    22    18   ar
    19    14    13   ar
    20    14    10   ar
    21    18    13    1
    22    13    12   ar
    23     9     8    1
    24     8     3    1
    25     6     1    1
    26     7     2    1
    27     1     2   ar
    28     1     5   ar
    29     3     2   ar
    30     3     4   ar
    31     5     4   ar
    32     4    10    1
    33    10    11   ar
    34    12    11   ar
    35    12    16    1
    36    11    15    1
    37    16    17    1
