@<TRIPOS>MOLECULE
mol_data/noopt/geoms/mol2/5ag5ag-5ag-5ag.out
 34 37 0 0 0
SMALL
GASTEIGER

@<TRIPOS>ATOM
      1 C          -2.0792   -1.7080   -0.0002 C.ar    1  LIG1       -0.0227
      2 C          -0.7020   -1.7080   -0.0002 C.ar    1  LIG1       -0.0409
      3 C          -0.1766   -0.3757   -0.0002 C.ar    1  LIG1        0.0200
      4 C          -1.1831    0.5643    0.0006 C.ar    1  LIG1        0.0391
      5 S          -2.6937   -0.1528    0.0006 S.2     1  LIG1       -0.0950
      6 H          -2.8374   -2.7640   -0.0008 H       1  LIG1        0.0694
      7 H           0.0503   -2.7682   -0.0004 H       1  LIG1        0.0634
      8 S           1.0968   -0.1143   -0.0009 S.3     1  LIG1       -0.1415
      9 H           1.2768    1.1833   -0.0011 H       1  LIG1        0.1071
     10 C          -1.0166    1.8536    0.0014 C.ar    1  LIG1        0.0286
     11 C           0.1958    2.5069    0.0015 C.ar    1  LIG1       -0.0326
     12 C           0.0263    3.9290    0.0017 C.ar    1  LIG1        0.0206
     13 C          -1.3057    4.2790    0.0026 C.ar    1  LIG1        0.0397
     14 S          -2.2953    2.9311    0.0023 S.2     1  LIG1       -0.0861
     15 H           1.3610    1.9305    0.0013 H       1  LIG1        0.0640
     16 S           1.0233    4.7632    0.0012 S.3     1  LIG1       -0.1415
     17 H           0.5662    5.9909    0.0010 H       1  LIG1        0.1071
     18 C          -1.7708    5.4930    0.0035 C.ar    1  LIG1        0.0286
     19 C          -1.0136    6.6432    0.0227 C.ar    1  LIG1       -0.0326
     20 C          -1.8374    7.8147    0.0172 C.ar    1  LIG1        0.0206
     21 C          -3.1758    7.4910   -0.0051 C.ar    1  LIG1        0.0397
     22 S          -3.4074    5.8351   -0.0192 S.2     1  LIG1       -0.0861
     23 H           0.2855    6.6885    0.0432 H       1  LIG1        0.0640
     24 S          -1.3555    9.0220    0.0317 S.3     1  LIG1       -0.1415
     25 H          -2.3403    9.8858    0.0366 H       1  LIG1        0.1071
     26 C          -4.1610    8.3391   -0.0144 C.ar    1  LIG1        0.0280
     27 C          -4.0401    9.7110   -0.0016 C.ar    1  LIG1       -0.0332
     28 C          -5.3209   10.3515   -0.0181 C.ar    1  LIG1        0.0124
     29 C          -6.3455    9.4316   -0.0417 C.ar    1  LIG1       -0.0105
     30 S          -5.7639    7.8638   -0.0443 S.2     1  LIG1       -0.0950
     31 H          -7.6151    9.7108   -0.0601 H       1  LIG1        0.0704
     32 H          -2.9181   10.3671    0.0222 H       1  LIG1        0.0640
     33 S          -5.4695   11.6429   -0.0111 S.3     1  LIG1       -0.1421
     34 H          -6.7462   11.9362   -0.0088 H       1  LIG1        0.1071
@<TRIPOS>BOND
     1    31    29    1
     2    30    29   ar
     3    30    26   ar
     4    29    28   ar
     5    22    21   ar
     6    22    18   ar
     7    28    33    1
     8    28    27   ar
     9    26    21    1
    10    26    27   ar
    11    33    34    1
    12    21    20   ar
    13    27    32    1
    14     9     8    1
    15     8     3    1
    16     6     1    1
    17     7     2    1
    18     1     2   ar
    19     1     5   ar
    20     2     3   ar
    21     3     4   ar
    22     4     5   ar
    23     4    10    1
    24    17    16    1
    25    16    12    1
    26    15    11    1
    27    10    11   ar
    28    10    14   ar
    29    11    12   ar
    30    12    13   ar
    31    14    13   ar
    32    13    18    1
    33    18    19   ar
    34    20    19   ar
    35    20    24    1
    36    19    23    1
    37    24    25    1
