@<TRIPOS>MOLECULE
mol_data/noopt/geoms/mol2/5ah5ah-5ah-.out
 29 31 0 0 0
SMALL
GASTEIGER

@<TRIPOS>ATOM
      1 C          -2.0792   -1.7080   -0.0002 C.ar    1  LIG1       -0.0219
      2 C          -0.7020   -1.7080   -0.0002 C.ar    1  LIG1       -0.0334
      3 C          -0.1766   -0.3757   -0.0002 C.ar    1  LIG1        0.0400
      4 C          -1.1831    0.5643    0.0006 C.ar    1  LIG1        0.0465
      5 S          -2.6937   -0.1528    0.0006 S.2     1  LIG1       -0.0942
      6 H          -2.8374   -2.7640   -0.0008 H       1  LIG1        0.0694
      7 H           0.0503   -2.7682   -0.0004 H       1  LIG1        0.0641
      8 N           1.0969   -0.1143   -0.0009 N.pl3   1  LIG1       -0.3571
      9 H           1.5873   -0.8472   -0.4725 H       1  LIG1        0.1424
     10 H           1.2590    0.7524   -0.4725 H       1  LIG1        0.1424
     11 C          -1.0166    1.8536    0.0014 C.ar    1  LIG1        0.0301
     12 C           0.1958    2.5069    0.0015 C.ar    1  LIG1       -0.0250
     13 C           0.0263    3.9290    0.0017 C.ar    1  LIG1        0.0406
     14 C          -1.3057    4.2790    0.0026 C.ar    1  LIG1        0.0471
     15 S          -2.2953    2.9311    0.0023 S.2     1  LIG1       -0.0853
     16 H           1.3610    1.9305    0.0013 H       1  LIG1        0.0648
     17 N           1.0233    4.7632    0.0012 N.pl3   1  LIG1       -0.3570
     18 H           1.8027    4.3508   -0.4704 H       1  LIG1        0.1424
     19 H           0.7549    5.6032   -0.4704 H       1  LIG1        0.1424
     20 C          -1.7708    5.4930    0.0035 C.ar    1  LIG1        0.0295
     21 C          -1.0136    6.6432    0.0227 C.ar    1  LIG1       -0.0257
     22 C          -1.8374    7.8147    0.0172 C.ar    1  LIG1        0.0323
     23 C          -3.1758    7.4910   -0.0051 C.ar    1  LIG1       -0.0031
     24 S          -3.4074    5.8351   -0.0192 S.2     1  LIG1       -0.0942
     25 H          -4.1610    8.3391   -0.0144 H       1  LIG1        0.0712
     26 H           0.2855    6.6885    0.0432 H       1  LIG1        0.0647
     27 N          -1.3555    9.0220    0.0317 N.pl3   1  LIG1       -0.3575
     28 H          -0.4717    9.0338   -0.4360 H       1  LIG1        0.1423
     29 H          -1.9883    9.6391   -0.4360 H       1  LIG1        0.1423
@<TRIPOS>BOND
     1    10     8    1
     2     9     8    1
     3    19    17    1
     4    18    17    1
     5    29    27    1
     6    28    27    1
     7    24    23   ar
     8    24    20   ar
     9    25    23    1
    10    23    22   ar
    11     8     3    1
    12     6     1    1
    13     7     2    1
    14     1     2   ar
    15     1     5   ar
    16     3     2   ar
    17     3     4   ar
    18     5     4   ar
    19     4    11    1
    20    17    13    1
    21    16    12    1
    22    11    12   ar
    23    11    15   ar
    24    12    13   ar
    25    13    14   ar
    26    15    14   ar
    27    14    20    1
    28    20    21   ar
    29    22    21   ar
    30    22    27    1
    31    21    26    1
