@<TRIPOS>MOLECULE
mol_data/noopt/geoms/mol2/5ah5ah-.out
 20 21 0 0 0
SMALL
GASTEIGER

@<TRIPOS>ATOM
      1 C          -2.0792   -1.7080   -0.0002 C.ar    1  LIG1       -0.0219
      2 C          -0.7020   -1.7080   -0.0002 C.ar    1  LIG1       -0.0334
      3 C          -0.1766   -0.3757   -0.0002 C.ar    1  LIG1        0.0400
      4 C          -1.1831    0.5643    0.0006 C.ar    1  LIG1        0.0465
      5 S          -2.6937   -0.1528    0.0006 S.2     1  LIG1       -0.0942
      6 H          -2.8374   -2.7640   -0.0008 H       1  LIG1        0.0694
      7 H           0.0503   -2.7682   -0.0004 H       1  LIG1        0.0641
      8 N           1.0969   -0.1143   -0.0009 N.pl3   1  LIG1       -0.3571
      9 H           1.5873   -0.8472   -0.4725 H       1  LIG1        0.1424
     10 H           1.2590    0.7524   -0.4725 H       1  LIG1        0.1424
     11 C          -1.0166    1.8536    0.0014 C.ar    1  LIG1        0.0294
     12 C           0.1958    2.5069    0.0015 C.ar    1  LIG1       -0.0257
     13 C           0.0263    3.9290    0.0017 C.ar    1  LIG1        0.0323
     14 C          -1.3057    4.2790    0.0026 C.ar    1  LIG1       -0.0031
     15 S          -2.2953    2.9311    0.0023 S.2     1  LIG1       -0.0942
     16 H          -1.7708    5.4930    0.0035 H       1  LIG1        0.0712
     17 H           1.3610    1.9305    0.0013 H       1  LIG1        0.0647
     18 N           1.0233    4.7632    0.0012 N.pl3   1  LIG1       -0.3575
     19 H           1.8027    4.3508   -0.4704 H       1  LIG1        0.1423
     20 H           0.7549    5.6032   -0.4704 H       1  LIG1        0.1423
@<TRIPOS>BOND
     1    10     8    1
     2     9     8    1
     3    20    18    1
     4    19    18    1
     5     8     3    1
     6     6     1    1
     7     7     2    1
     8     1     2   ar
     9     1     5   ar
    10     3     2   ar
    11     3     4   ar
    12     5     4   ar
    13     4    11    1
    14    18    13    1
    15    17    12    1
    16    11    12   ar
    17    11    15   ar
    18    12    13   ar
    19    13    14   ar
    20    15    14   ar
    21    14    16    1
