@<TRIPOS>MOLECULE
mol_data/noopt/geoms/mol2/5ah5ah.out
 20 21 0 0 0
SMALL
GASTEIGER

@<TRIPOS>ATOM
      1 C          -2.0792   -1.7080   -0.0002 C.ar    1  LIG1       -0.0219
      2 C          -0.7020   -1.7080   -0.0002 C.ar    1  LIG1       -0.0334
      3 C          -0.1766   -0.3757   -0.0002 C.ar    1  LIG1        0.0400
      4 C          -1.1831    0.5643    0.0006 C.ar    1  LIG1        0.0465
      5 S          -2.6937   -0.1528    0.0006 S.2     1  LIG1       -0.0942
      6 H          -2.8374   -2.7640   -0.0008 H       1  LIG1        0.0694
      7 H           0.0503   -2.7682   -0.0004 H       1  LIG1        0.0641
      8 N           1.0969   -0.1143   -0.0009 N.pl3   1  LIG1       -0.3571
      9 H           1.5873   -0.8472   -0.4725 H       1  LIG1        0.1424
     10 H           1.2590    0.7524   -0.4725 H       1  LIG1        0.1424
     11 C          -1.0166    1.8536    0.0014 C.ar    1  LIG1        0.0294
     12 C           0.1956    2.5069    0.0205 C.ar    1  LIG1       -0.0257
     13 C           0.0262    3.9290    0.0147 C.ar    1  LIG1        0.0323
     14 C          -1.3056    4.2790   -0.0075 C.ar    1  LIG1       -0.0031
     15 S          -2.2951    2.9311   -0.0215 S.2     1  LIG1       -0.0942
     16 H          -1.7706    5.4930   -0.0170 H       1  LIG1        0.0712
     17 H           1.3607    1.9305    0.0410 H       1  LIG1        0.0647
     18 N           1.0231    4.7633    0.0291 N.pl3   1  LIG1       -0.3575
     19 H           1.8067    4.3543   -0.4386 H       1  LIG1        0.1423
     20 H           0.7588    5.6066   -0.4386 H       1  LIG1        0.1423
@<TRIPOS>BOND
     1    10     8    1
     2     9     8    1
     3    20    18    1
     4    19    18    1
     5    15    14   ar
     6    15    11   ar
     7    16    14    1
     8    14    13   ar
     9     8     3    1
    10     6     1    1
    11     7     2    1
    12     1     2   ar
    13     1     5   ar
    14     3     2   ar
    15     3     4   ar
    16     5     4   ar
    17     4    11    1
    18    11    12   ar
    19    13    12   ar
    20    13    18    1
    21    12    17    1
