@<TRIPOS>MOLECULE
mol_data/noopt/geoms/mol2/5ah5ah5ah-5ah.out
 38 41 0 0 0
SMALL
GASTEIGER

@<TRIPOS>ATOM
      1 C          -2.0792   -1.7080   -0.0002 C.ar    1  LIG1       -0.0219
      2 C          -0.7020   -1.7080   -0.0002 C.ar    1  LIG1       -0.0334
      3 C          -0.1766   -0.3757   -0.0002 C.ar    1  LIG1        0.0400
      4 C          -1.1831    0.5643    0.0006 C.ar    1  LIG1        0.0465
      5 S          -2.6937   -0.1528    0.0006 S.2     1  LIG1       -0.0942
      6 H          -2.8374   -2.7640   -0.0008 H       1  LIG1        0.0694
      7 H           0.0503   -2.7682   -0.0004 H       1  LIG1        0.0641
      8 N           1.0969   -0.1143   -0.0009 N.pl3   1  LIG1       -0.3571
      9 H           1.5873   -0.8472   -0.4725 H       1  LIG1        0.1424
     10 H           1.2590    0.7524   -0.4725 H       1  LIG1        0.1424
     11 C          -1.0166    1.8536    0.0014 C.ar    1  LIG1        0.0301
     12 C           0.1956    2.5069    0.0205 C.ar    1  LIG1       -0.0250
     13 C           0.0262    3.9290    0.0147 C.ar    1  LIG1        0.0406
     14 C          -1.3056    4.2790   -0.0075 C.ar    1  LIG1        0.0472
     15 S          -2.2951    2.9311   -0.0215 S.2     1  LIG1       -0.0853
     16 H           1.3607    1.9305    0.0410 H       1  LIG1        0.0648
     17 N           1.0231    4.7633    0.0291 N.pl3   1  LIG1       -0.3570
     18 H           1.8067    4.3543   -0.4386 H       1  LIG1        0.1424
     19 H           0.7588    5.6066   -0.4386 H       1  LIG1        0.1424
     20 C          -1.7706    5.4930   -0.0170 C.ar    1  LIG1        0.0301
     21 C          -1.0134    6.6433   -0.0043 C.ar    1  LIG1       -0.0250
     22 C          -1.8371    7.8147   -0.0210 C.ar    1  LIG1        0.0406
     23 C          -3.1754    7.4910   -0.0446 C.ar    1  LIG1        0.0471
     24 S          -3.4072    5.8350   -0.0470 S.2     1  LIG1       -0.0853
     25 H           0.2856    6.6886    0.0196 H       1  LIG1        0.0648
     26 N          -1.3551    9.0221   -0.0141 N.pl3   1  LIG1       -0.3570
     27 H          -0.4723    9.0313   -0.4838 H       1  LIG1        0.1424
     28 H          -1.9889    9.6367   -0.4838 H       1  LIG1        0.1424
     29 C          -4.1606    8.3390   -0.0631 C.ar    1  LIG1        0.0295
     30 C          -4.0397    9.7109   -0.0560 C.ar    1  LIG1       -0.0257
     31 C          -5.3204   10.3513   -0.0823 C.ar    1  LIG1        0.0323
     32 C          -6.3449    9.4313   -0.1072 C.ar    1  LIG1       -0.0031
     33 S          -5.7633    7.8636   -0.0994 S.2     1  LIG1       -0.0942
     34 H          -7.6143    9.7105   -0.1337 H       1  LIG1        0.0712
     35 H          -2.9178   10.3671   -0.0292 H       1  LIG1        0.0647
     36 N          -5.4689   11.6428   -0.0821 N.pl3   1  LIG1       -0.3575
     37 H          -4.6959   12.0673   -0.5535 H       1  LIG1        0.1423
     38 H          -6.3181   11.8808   -0.5535 H       1  LIG1        0.1423
@<TRIPOS>BOND
     1    38    36    1
     2    37    36    1
     3    28    26    1
     4    27    26    1
     5    10     8    1
     6     9     8    1
     7    19    17    1
     8    18    17    1
     9    34    32    1
    10    32    33   ar
    11    32    31   ar
    12    33    29   ar
    13    31    36    1
    14    31    30   ar
    15    29    30   ar
    16    29    23    1
    17    30    35    1
    18    24    23   ar
    19    24    20   ar
    20    23    22   ar
    21    15    14   ar
    22    15    11   ar
    23    22    26    1
    24    22    21   ar
    25    20    14    1
    26    20    21   ar
    27    14    13   ar
    28    21    25    1
    29     8     3    1
    30     6     1    1
    31     7     2    1
    32     2     3   ar
    33     2     1   ar
    34     3     4   ar
    35     1     5   ar
    36     5     4   ar
    37     4    11    1
    38    11    12   ar
    39    13    12   ar
    40    13    17    1
    41    12    16    1
