@<TRIPOS>MOLECULE
mol_data/noopt/geoms/mol2/5ah5ah-5ah5ah.out
 38 41 0 0 0
SMALL
GASTEIGER

@<TRIPOS>ATOM
      1 C          -2.0792   -1.7080   -0.0002 C.ar    1  LIG1       -0.0219
      2 C          -0.7020   -1.7080   -0.0002 C.ar    1  LIG1       -0.0334
      3 C          -0.1766   -0.3757   -0.0002 C.ar    1  LIG1        0.0400
      4 C          -1.1831    0.5643    0.0006 C.ar    1  LIG1        0.0465
      5 S          -2.6937   -0.1528    0.0006 S.2     1  LIG1       -0.0942
      6 H          -2.8374   -2.7640   -0.0008 H       1  LIG1        0.0694
      7 H           0.0503   -2.7682   -0.0004 H       1  LIG1        0.0641
      8 N           1.0969   -0.1143   -0.0009 N.pl3   1  LIG1       -0.3571
      9 H           1.5873   -0.8472   -0.4725 H       1  LIG1        0.1424
     10 H           1.2590    0.7524   -0.4725 H       1  LIG1        0.1424
     11 C          -1.0166    1.8536    0.0014 C.ar    1  LIG1        0.0301
     12 C           0.1958    2.5069    0.0015 C.ar    1  LIG1       -0.0250
     13 C           0.0263    3.9290    0.0017 C.ar    1  LIG1        0.0406
     14 C          -1.3057    4.2790    0.0026 C.ar    1  LIG1        0.0472
     15 S          -2.2953    2.9311    0.0023 S.2     1  LIG1       -0.0853
     16 H           1.3610    1.9305    0.0013 H       1  LIG1        0.0648
     17 N           1.0233    4.7632    0.0012 N.pl3   1  LIG1       -0.3570
     18 H           1.8027    4.3508   -0.4704 H       1  LIG1        0.1424
     19 H           0.7549    5.6032   -0.4704 H       1  LIG1        0.1424
     20 C          -1.7708    5.4930    0.0035 C.ar    1  LIG1        0.0301
     21 C          -1.0134    6.6433    0.0038 C.ar    1  LIG1       -0.0250
     22 C          -1.8373    7.8147    0.0042 C.ar    1  LIG1        0.0406
     23 C          -3.1759    7.4910    0.0050 C.ar    1  LIG1        0.0471
     24 S          -3.4076    5.8350    0.0046 S.2     1  LIG1       -0.0853
     25 H           0.2858    6.6886    0.0035 H       1  LIG1        0.0648
     26 N          -1.3553    9.0221    0.0038 N.pl3   1  LIG1       -0.3570
     27 H          -0.4735    9.0288   -0.4678 H       1  LIG1        0.1424
     28 H          -1.9901    9.6342   -0.4678 H       1  LIG1        0.1424
     29 C          -4.1612    8.3391    0.0062 C.ar    1  LIG1        0.0295
     30 C          -4.0402    9.7108    0.0254 C.ar    1  LIG1       -0.0257
     31 C          -5.3212   10.3513    0.0201 C.ar    1  LIG1        0.0323
     32 C          -6.3459    9.4314   -0.0022 C.ar    1  LIG1       -0.0031
     33 S          -5.7642    7.8638   -0.0165 S.2     1  LIG1       -0.0942
     34 H          -7.6155    9.7107   -0.0114 H       1  LIG1        0.0712
     35 H          -2.9181   10.3669    0.0458 H       1  LIG1        0.0647
     36 N          -5.4697   11.6427    0.0347 N.pl3   1  LIG1       -0.3575
     37 H          -4.6972   12.0724   -0.4330 H       1  LIG1        0.1423
     38 H          -6.3195   11.8858   -0.4330 H       1  LIG1        0.1423
@<TRIPOS>BOND
     1    10     8    1
     2     9     8    1
     3    19    17    1
     4    18    17    1
     5    28    26    1
     6    27    26    1
     7    38    36    1
     8    37    36    1
     9    33    32   ar
    10    33    29   ar
    11    34    32    1
    12    32    31   ar
    13     8     3    1
    14     6     1    1
    15     7     2    1
    16     1     2   ar
    17     1     5   ar
    18     2     3   ar
    19     3     4   ar
    20     4     5   ar
    21     4    11    1
    22    17    13    1
    23    16    12    1
    24    11    12   ar
    25    11    15   ar
    26    12    13   ar
    27    13    14   ar
    28    15    14   ar
    29    14    20    1
    30    25    21    1
    31    20    21   ar
    32    20    24   ar
    33    26    22    1
    34    21    22   ar
    35    22    23   ar
    36    24    23   ar
    37    23    29    1
    38    29    30   ar
    39    31    30   ar
    40    31    36    1
    41    30    35    1
