@<TRIPOS>MOLECULE
mol_data/noopt/geoms/mol2/5ah5ah5ah.out
 29 31 0 0 0
SMALL
GASTEIGER

@<TRIPOS>ATOM
      1 C          -2.0792   -1.7080   -0.0002 C.ar    1  LIG1       -0.0219
      2 C          -0.7020   -1.7080   -0.0002 C.ar    1  LIG1       -0.0334
      3 C          -0.1766   -0.3757   -0.0002 C.ar    1  LIG1        0.0400
      4 C          -1.1831    0.5643    0.0006 C.ar    1  LIG1        0.0465
      5 S          -2.6937   -0.1528    0.0006 S.2     1  LIG1       -0.0942
      6 H          -2.8374   -2.7640   -0.0008 H       1  LIG1        0.0694
      7 H           0.0503   -2.7682   -0.0004 H       1  LIG1        0.0641
      8 N           1.0969   -0.1143   -0.0009 N.pl3   1  LIG1       -0.3571
      9 H           1.5873   -0.8472   -0.4725 H       1  LIG1        0.1424
     10 H           1.2590    0.7524   -0.4725 H       1  LIG1        0.1424
     11 C          -1.0166    1.8536    0.0014 C.ar    1  LIG1        0.0301
     12 C           0.1956    2.5069    0.0205 C.ar    1  LIG1       -0.0250
     13 C           0.0262    3.9290    0.0147 C.ar    1  LIG1        0.0406
     14 C          -1.3056    4.2790   -0.0075 C.ar    1  LIG1        0.0471
     15 S          -2.2951    2.9311   -0.0215 S.2     1  LIG1       -0.0853
     16 H           1.3607    1.9305    0.0410 H       1  LIG1        0.0648
     17 N           1.0231    4.7633    0.0291 N.pl3   1  LIG1       -0.3570
     18 H           1.8067    4.3543   -0.4386 H       1  LIG1        0.1424
     19 H           0.7588    5.6066   -0.4386 H       1  LIG1        0.1424
     20 C          -1.7706    5.4930   -0.0170 C.ar    1  LIG1        0.0295
     21 C          -1.0132    6.6432   -0.0232 C.ar    1  LIG1       -0.0257
     22 C          -1.8369    7.8147   -0.0340 C.ar    1  LIG1        0.0323
     23 C          -3.1756    7.4910   -0.0345 C.ar    1  LIG1       -0.0031
     24 S          -3.4074    5.8350   -0.0232 S.2     1  LIG1       -0.0942
     25 H          -4.1608    8.3391   -0.0426 H       1  LIG1        0.0712
     26 H           0.2860    6.6885   -0.0202 H       1  LIG1        0.0647
     27 N          -1.3549    9.0220   -0.0421 N.pl3   1  LIG1       -0.3575
     28 H          -0.4741    9.0260   -0.5155 H       1  LIG1        0.1423
     29 H          -1.9906    9.6316   -0.5156 H       1  LIG1        0.1423
@<TRIPOS>BOND
     1    29    27    1
     2    28    27    1
     3    10     8    1
     4     9     8    1
     5    19    17    1
     6    18    17    1
     7    25    23    1
     8    27    22    1
     9    23    22   ar
    10    23    24   ar
    11    22    21   ar
    12    21    26    1
    13    21    20   ar
    14    24    20   ar
    15    15    14   ar
    16    15    11   ar
    17    20    14    1
    18    14    13   ar
    19     8     3    1
    20     6     1    1
    21     7     2    1
    22     1     2   ar
    23     1     5   ar
    24     3     2   ar
    25     3     4   ar
    26     5     4   ar
    27     4    11    1
    28    11    12   ar
    29    13    12   ar
    30    13    17    1
    31    12    16    1
