@<TRIPOS>MOLECULE
mol_data/noopt/geoms/mol2/5ai.out
 12 12 0 0 0
SMALL
GASTEIGER

@<TRIPOS>ATOM
      1 C          -2.0792   -1.7080   -0.0002 C.ar    1  LIG1       -0.0241
      2 C          -0.7020   -1.7080   -0.0002 C.ar    1  LIG1       -0.0518
      3 C          -0.1766   -0.3757   -0.0002 C.ar    1  LIG1       -0.0434
      4 C          -1.1831    0.5643    0.0006 C.ar    1  LIG1       -0.0214
      5 S          -2.6937   -0.1528    0.0006 S.2     1  LIG1       -0.1048
      6 H          -2.8374   -2.7640   -0.0008 H       1  LIG1        0.0693
      7 H          -1.0166    1.8536    0.0014 H       1  LIG1        0.0696
      8 H           0.0503   -2.7682   -0.0004 H       1  LIG1        0.0625
      9 C           1.0972   -0.1142   -0.0009 C.3     1  LIG1       -0.0392
     10 H           1.2712    0.8133    0.5033 H       1  LIG1        0.0278
     11 H           1.4460   -0.0426   -1.0099 H       1  LIG1        0.0278
     12 H           1.6224   -0.8983    0.5033 H       1  LIG1        0.0278
@<TRIPOS>BOND
     1    11     9    1
     2     9     3    1
     3     9    12    1
     4     9    10    1
     5     6     1    1
     6     8     2    1
     7     1     2   ar
     8     1     5   ar
     9     2     3   ar
    10     3     4   ar
    11     4     5   ar
    12     4     7    1
