@<TRIPOS>MOLECULE
mol_data/noopt/geoms/mol2/5ai5ai5ai-.out
 32 34 0 0 0
SMALL
GASTEIGER

@<TRIPOS>ATOM
      1 C          -2.0792   -1.7080   -0.0002 C.ar    1  LIG1       -0.0235
      2 C          -0.7020   -1.7080   -0.0002 C.ar    1  LIG1       -0.0512
      3 C          -0.1766   -0.3757   -0.0002 C.ar    1  LIG1       -0.0352
      4 C          -1.1831    0.5643    0.0006 C.ar    1  LIG1        0.0288
      5 S          -2.6937   -0.1528    0.0006 S.2     1  LIG1       -0.0959
      6 H          -2.8374   -2.7640   -0.0008 H       1  LIG1        0.0693
      7 H           0.0503   -2.7682   -0.0004 H       1  LIG1        0.0626
      8 C           1.0972   -0.1142   -0.0009 C.3     1  LIG1       -0.0386
      9 H           1.2712    0.8133    0.5033 H       1  LIG1        0.0278
     10 H           1.4460   -0.0426   -1.0099 H       1  LIG1        0.0278
     11 H           1.6224   -0.8983    0.5033 H       1  LIG1        0.0278
     12 C          -1.0166    1.8536    0.0014 C.ar    1  LIG1        0.0270
     13 C           0.1956    2.5069    0.0205 C.ar    1  LIG1       -0.0429
     14 C           0.0262    3.9290    0.0147 C.ar    1  LIG1       -0.0346
     15 C          -1.3056    4.2790   -0.0075 C.ar    1  LIG1        0.0294
     16 S          -2.2951    2.9311   -0.0215 S.2     1  LIG1       -0.0869
     17 H           1.3607    1.9305    0.0410 H       1  LIG1        0.0632
     18 C           1.0233    4.7634    0.0291 C.3     1  LIG1       -0.0386
     19 H           0.7319    5.6588    0.5375 H       1  LIG1        0.0278
     20 H           1.3054    4.9995   -0.9757 H       1  LIG1        0.0278
     21 H           1.8532    4.3187    0.5374 H       1  LIG1        0.0278
     22 C          -1.7706    5.4930   -0.0170 C.ar    1  LIG1        0.0264
     23 C          -1.0134    6.6433   -0.0043 C.ar    1  LIG1       -0.0435
     24 C          -1.8371    7.8147   -0.0210 C.ar    1  LIG1       -0.0428
     25 C          -3.1754    7.4910   -0.0446 C.ar    1  LIG1       -0.0208
     26 S          -3.4072    5.8350   -0.0470 S.2     1  LIG1       -0.0959
     27 H          -4.1606    8.3390   -0.0631 H       1  LIG1        0.0696
     28 H           0.2856    6.6886    0.0196 H       1  LIG1        0.0632
     29 C          -1.3550    9.0224   -0.0141 C.3     1  LIG1       -0.0392
     30 H          -2.0352    9.6750    0.4922 H       1  LIG1        0.0278
     31 H          -1.2209    9.3586   -1.0211 H       1  LIG1        0.0278
     32 H          -0.4124    9.0273    0.4921 H       1  LIG1        0.0278
@<TRIPOS>BOND
     1    31    29    1
     2    10     8    1
     3    20    18    1
     4    27    25    1
     5    26    25   ar
     6    26    22   ar
     7    25    24   ar
     8    16    15   ar
     9    16    12   ar
    10    24    29    1
    11    24    23   ar
    12    22    15    1
    13    22    23   ar
    14    29    32    1
    15    29    30    1
    16    15    14   ar
    17    23    28    1
    18     8     3    1
    19     8    11    1
    20     8     9    1
    21     6     1    1
    22     7     2    1
    23     1     2   ar
    24     1     5   ar
    25     3     2   ar
    26     3     4   ar
    27     5     4   ar
    28     4    12    1
    29    12    13   ar
    30    14    13   ar
    31    14    18    1
    32    13    17    1
    33    18    21    1
    34    18    19    1
