@<TRIPOS>MOLECULE
mol_data/noopt/geoms/mol2/5ai5ai-5ai-.out
 32 34 0 0 0
SMALL
GASTEIGER

@<TRIPOS>ATOM
      1 C          -2.0792   -1.7080   -0.0002 C.ar    1  LIG1       -0.0235
      2 C          -0.7020   -1.7080   -0.0002 C.ar    1  LIG1       -0.0512
      3 C          -0.1766   -0.3757   -0.0002 C.ar    1  LIG1       -0.0352
      4 C          -1.1831    0.5643    0.0006 C.ar    1  LIG1        0.0288
      5 S          -2.6937   -0.1528    0.0006 S.2     1  LIG1       -0.0959
      6 H          -2.8374   -2.7640   -0.0008 H       1  LIG1        0.0693
      7 H           0.0503   -2.7682   -0.0004 H       1  LIG1        0.0626
      8 C           1.0972   -0.1142   -0.0009 C.3     1  LIG1       -0.0386
      9 H           1.2712    0.8133    0.5033 H       1  LIG1        0.0278
     10 H           1.4460   -0.0426   -1.0099 H       1  LIG1        0.0278
     11 H           1.6224   -0.8983    0.5033 H       1  LIG1        0.0278
     12 C          -1.0166    1.8536    0.0014 C.ar    1  LIG1        0.0270
     13 C           0.1958    2.5069    0.0015 C.ar    1  LIG1       -0.0429
     14 C           0.0263    3.9290    0.0017 C.ar    1  LIG1       -0.0346
     15 C          -1.3057    4.2790    0.0026 C.ar    1  LIG1        0.0294
     16 S          -2.2953    2.9311    0.0023 S.2     1  LIG1       -0.0869
     17 H           1.3610    1.9305    0.0013 H       1  LIG1        0.0632
     18 C           1.0235    4.7634    0.0012 C.3     1  LIG1       -0.0386
     19 H           0.7366    5.6625    0.5055 H       1  LIG1        0.0278
     20 H           1.2967    4.9921   -1.0078 H       1  LIG1        0.0278
     21 H           1.8579    4.3223    0.5054 H       1  LIG1        0.0278
     22 C          -1.7708    5.4930    0.0035 C.ar    1  LIG1        0.0264
     23 C          -1.0136    6.6432    0.0227 C.ar    1  LIG1       -0.0435
     24 C          -1.8374    7.8147    0.0172 C.ar    1  LIG1       -0.0428
     25 C          -3.1758    7.4910   -0.0051 C.ar    1  LIG1       -0.0208
     26 S          -3.4074    5.8351   -0.0192 S.2     1  LIG1       -0.0959
     27 H          -4.1610    8.3391   -0.0144 H       1  LIG1        0.0696
     28 H           0.2855    6.6885    0.0432 H       1  LIG1        0.0632
     29 C          -1.3554    9.0223    0.0317 C.3     1  LIG1       -0.0392
     30 H          -2.0366    9.6722    0.5401 H       1  LIG1        0.0278
     31 H          -1.2191    9.3640   -0.9731 H       1  LIG1        0.0278
     32 H          -0.4138    9.0244    0.5400 H       1  LIG1        0.0278
@<TRIPOS>BOND
     1    10     8    1
     2    20    18    1
     3    31    29    1
     4    26    25   ar
     5    26    22   ar
     6    27    25    1
     7    25    24   ar
     8     8     3    1
     9     8    11    1
    10     8     9    1
    11     6     1    1
    12     7     2    1
    13     2     3   ar
    14     2     1   ar
    15     3     4   ar
    16     1     5   ar
    17     4     5   ar
    18     4    12    1
    19    18    14    1
    20    18    21    1
    21    18    19    1
    22    17    13    1
    23    12    13   ar
    24    12    16   ar
    25    13    14   ar
    26    14    15   ar
    27    16    15   ar
    28    15    22    1
    29    22    23   ar
    30    24    23   ar
    31    24    29    1
    32    23    28    1
    33    29    32    1
    34    29    30    1
