@<TRIPOS>MOLECULE
mol_data/noopt/geoms/mol2/5ai5ai.out
 22 23 0 0 0
SMALL
GASTEIGER

@<TRIPOS>ATOM
      1 C          -2.0792   -1.7080   -0.0002 C.ar    1  LIG1       -0.0235
      2 C          -0.7020   -1.7080   -0.0002 C.ar    1  LIG1       -0.0512
      3 C          -0.1766   -0.3757   -0.0002 C.ar    1  LIG1       -0.0352
      4 C          -1.1831    0.5643    0.0006 C.ar    1  LIG1        0.0288
      5 S          -2.6937   -0.1528    0.0006 S.2     1  LIG1       -0.0959
      6 H          -2.8374   -2.7640   -0.0008 H       1  LIG1        0.0693
      7 H           0.0503   -2.7682   -0.0004 H       1  LIG1        0.0626
      8 C           1.0972   -0.1142   -0.0009 C.3     1  LIG1       -0.0386
      9 H           1.2712    0.8133    0.5033 H       1  LIG1        0.0278
     10 H           1.4460   -0.0426   -1.0099 H       1  LIG1        0.0278
     11 H           1.6224   -0.8983    0.5033 H       1  LIG1        0.0278
     12 C          -1.0166    1.8536    0.0014 C.ar    1  LIG1        0.0264
     13 C           0.1956    2.5069    0.0205 C.ar    1  LIG1       -0.0435
     14 C           0.0262    3.9290    0.0147 C.ar    1  LIG1       -0.0428
     15 C          -1.3056    4.2790   -0.0075 C.ar    1  LIG1       -0.0208
     16 S          -2.2951    2.9311   -0.0215 S.2     1  LIG1       -0.0959
     17 H          -1.7706    5.4930   -0.0170 H       1  LIG1        0.0696
     18 H           1.3607    1.9305    0.0410 H       1  LIG1        0.0632
     19 C           1.0233    4.7634    0.0291 C.3     1  LIG1       -0.0392
     20 H           0.7319    5.6588    0.5375 H       1  LIG1        0.0278
     21 H           1.3054    4.9995   -0.9757 H       1  LIG1        0.0278
     22 H           1.8532    4.3187    0.5374 H       1  LIG1        0.0278
@<TRIPOS>BOND
     1    10     8    1
     2    21    19    1
     3    16    15   ar
     4    16    12   ar
     5    17    15    1
     6    15    14   ar
     7     8     3    1
     8     8    11    1
     9     8     9    1
    10     6     1    1
    11     7     2    1
    12     2     3   ar
    13     2     1   ar
    14     3     4   ar
    15     1     5   ar
    16     4     5   ar
    17     4    12    1
    18    12    13   ar
    19    14    13   ar
    20    14    19    1
    21    13    18    1
    22    19    22    1
    23    19    20    1
