@<TRIPOS>MOLECULE
mol_data/noopt/geoms/mol2/5ai5ai-.out
 22 23 0 0 0
SMALL
GASTEIGER

@<TRIPOS>ATOM
      1 C          -2.0792   -1.7080   -0.0002 C.ar    1  LIG1       -0.0235
      2 C          -0.7020   -1.7080   -0.0002 C.ar    1  LIG1       -0.0512
      3 C          -0.1766   -0.3757   -0.0002 C.ar    1  LIG1       -0.0352
      4 C          -1.1831    0.5643    0.0006 C.ar    1  LIG1        0.0288
      5 S          -2.6937   -0.1528    0.0006 S.2     1  LIG1       -0.0959
      6 H          -2.8374   -2.7640   -0.0008 H       1  LIG1        0.0693
      7 H           0.0503   -2.7682   -0.0004 H       1  LIG1        0.0626
      8 C           1.0972   -0.1142   -0.0009 C.3     1  LIG1       -0.0386
      9 H           1.2712    0.8133    0.5033 H       1  LIG1        0.0278
     10 H           1.4460   -0.0426   -1.0099 H       1  LIG1        0.0278
     11 H           1.6224   -0.8983    0.5033 H       1  LIG1        0.0278
     12 C          -1.0166    1.8536    0.0014 C.ar    1  LIG1        0.0264
     13 C           0.1958    2.5069    0.0015 C.ar    1  LIG1       -0.0435
     14 C           0.0263    3.9290    0.0017 C.ar    1  LIG1       -0.0428
     15 C          -1.3057    4.2790    0.0026 C.ar    1  LIG1       -0.0208
     16 S          -2.2953    2.9311    0.0023 S.2     1  LIG1       -0.0959
     17 H          -1.7708    5.4930    0.0035 H       1  LIG1        0.0696
     18 H           1.3610    1.9305    0.0013 H       1  LIG1        0.0632
     19 C           1.0235    4.7634    0.0012 C.3     1  LIG1       -0.0392
     20 H           0.7366    5.6625    0.5055 H       1  LIG1        0.0278
     21 H           1.2967    4.9921   -1.0078 H       1  LIG1        0.0278
     22 H           1.8579    4.3223    0.5054 H       1  LIG1        0.0278
@<TRIPOS>BOND
     1    10     8    1
     2    21    19    1
     3     8     3    1
     4     8    11    1
     5     8     9    1
     6     6     1    1
     7     7     2    1
     8     2     3   ar
     9     2     1   ar
    10     3     4   ar
    11     1     5   ar
    12     4     5   ar
    13     4    12    1
    14    19    14    1
    15    19    22    1
    16    19    20    1
    17    18    13    1
    18    12    13   ar
    19    12    16   ar
    20    13    14   ar
    21    14    15   ar
    22    16    15   ar
    23    15    17    1
