@<TRIPOS>MOLECULE
mol_data/noopt/geoms/mol2/5ai5ai-5ai5ai-.out
 42 45 0 0 0
SMALL
GASTEIGER

@<TRIPOS>ATOM
      1 C          -2.0792   -1.7080   -0.0002 C.ar    1  LIG1       -0.0235
      2 C          -0.7020   -1.7080   -0.0002 C.ar    1  LIG1       -0.0512
      3 C          -0.1766   -0.3757   -0.0002 C.ar    1  LIG1       -0.0352
      4 C          -1.1831    0.5643    0.0006 C.ar    1  LIG1        0.0288
      5 S          -2.6937   -0.1528    0.0006 S.2     1  LIG1       -0.0959
      6 H          -2.8374   -2.7640   -0.0008 H       1  LIG1        0.0693
      7 H           0.0503   -2.7682   -0.0004 H       1  LIG1        0.0626
      8 C           1.0972   -0.1142   -0.0009 C.3     1  LIG1       -0.0386
      9 H           1.2712    0.8133    0.5033 H       1  LIG1        0.0278
     10 H           1.4460   -0.0426   -1.0099 H       1  LIG1        0.0278
     11 H           1.6224   -0.8983    0.5033 H       1  LIG1        0.0278
     12 C          -1.0166    1.8536    0.0014 C.ar    1  LIG1        0.0270
     13 C           0.1958    2.5069    0.0015 C.ar    1  LIG1       -0.0429
     14 C           0.0263    3.9290    0.0017 C.ar    1  LIG1       -0.0346
     15 C          -1.3057    4.2790    0.0026 C.ar    1  LIG1        0.0294
     16 S          -2.2953    2.9311    0.0023 S.2     1  LIG1       -0.0869
     17 H           1.3610    1.9305    0.0013 H       1  LIG1        0.0632
     18 C           1.0235    4.7634    0.0012 C.3     1  LIG1       -0.0386
     19 H           0.7366    5.6625    0.5055 H       1  LIG1        0.0278
     20 H           1.2967    4.9921   -1.0078 H       1  LIG1        0.0278
     21 H           1.8579    4.3223    0.5054 H       1  LIG1        0.0278
     22 C          -1.7708    5.4930    0.0035 C.ar    1  LIG1        0.0270
     23 C          -1.0134    6.6433    0.0038 C.ar    1  LIG1       -0.0429
     24 C          -1.8373    7.8147    0.0042 C.ar    1  LIG1       -0.0346
     25 C          -3.1759    7.4910    0.0050 C.ar    1  LIG1        0.0294
     26 S          -3.4076    5.8350    0.0046 S.2     1  LIG1       -0.0869
     27 H           0.2858    6.6886    0.0035 H       1  LIG1        0.0632
     28 C          -1.3552    9.0224    0.0038 C.3     1  LIG1       -0.0386
     29 H          -2.0343    9.6777    0.5081 H       1  LIG1        0.0278
     30 H          -1.2231    9.3534   -1.0052 H       1  LIG1        0.0278
     31 H          -0.4115    9.0299    0.5080 H       1  LIG1        0.0278
     32 C          -4.1612    8.3391    0.0062 C.ar    1  LIG1        0.0264
     33 C          -4.0401    9.7109    0.0065 C.ar    1  LIG1       -0.0435
     34 C          -5.3211   10.3514    0.0071 C.ar    1  LIG1       -0.0428
     35 C          -6.3459    9.4314    0.0079 C.ar    1  LIG1       -0.0208
     36 S          -5.7643    7.8636    0.0073 S.2     1  LIG1       -0.0959
     37 H          -7.6156    9.7105    0.0092 H       1  LIG1        0.0696
     38 H          -2.9179   10.3672    0.0061 H       1  LIG1        0.0632
     39 C          -5.4696   11.6432    0.0067 C.3     1  LIG1       -0.0392
     40 H          -6.3783   11.8979    0.5111 H       1  LIG1        0.0278
     41 H          -5.5104   11.9973   -1.0022 H       1  LIG1        0.0278
     42 H          -4.6424   12.0974    0.5110 H       1  LIG1        0.0278
@<TRIPOS>BOND
     1    10     8    1
     2    20    18    1
     3    30    28    1
     4    41    39    1
     5     8     3    1
     6     8    11    1
     7     8     9    1
     8     6     1    1
     9     7     2    1
    10     1     2   ar
    11     1     5   ar
    12     3     2   ar
    13     3     4   ar
    14     5     4   ar
    15     4    12    1
    16    18    14    1
    17    18    21    1
    18    18    19    1
    19    17    13    1
    20    12    13   ar
    21    12    16   ar
    22    13    14   ar
    23    14    15   ar
    24    16    15   ar
    25    15    22    1
    26    27    23    1
    27    22    23   ar
    28    22    26   ar
    29    28    24    1
    30    28    31    1
    31    28    29    1
    32    23    24   ar
    33    24    25   ar
    34    26    25   ar
    35    25    32    1
    36    38    33    1
    37    32    33   ar
    38    32    36   ar
    39    33    34   ar
    40    39    34    1
    41    39    42    1
    42    39    40    1
    43    34    35   ar
    44    36    35   ar
    45    35    37    1
