@<TRIPOS>MOLECULE
mol_data/noopt/geoms/mol2/5al.out
 13 13 0 0 0
SMALL
GASTEIGER

@<TRIPOS>ATOM
      1 C          -2.0792   -1.7080   -0.0002 C.ar    1  LIG1       -0.0208
      2 C          -0.7020   -1.7080   -0.0002 C.ar    1  LIG1       -0.0129
      3 C          -0.1766   -0.3757   -0.0002 C.ar    1  LIG1        0.1271
      4 C          -1.1831    0.5643    0.0006 C.ar    1  LIG1        0.0174
      5 S          -2.6937   -0.1528    0.0006 S.2     1  LIG1       -0.1013
      6 H          -2.8374   -2.7640   -0.0008 H       1  LIG1        0.0694
      7 H          -1.0166    1.8536    0.0014 H       1  LIG1        0.0730
      8 H           0.0503   -2.7682   -0.0004 H       1  LIG1        0.0659
      9 O           1.0969   -0.1143   -0.0009 O.3     1  LIG1       -0.4946
     10 C           1.8355   -1.3388   -0.0012 C.3     1  LIG1        0.0788
     11 H           2.8835   -1.1232   -0.0020 H       1  LIG1        0.0660
     12 H           1.5884   -1.9046    0.8727 H       1  LIG1        0.0660
     13 H           1.5872   -1.9049   -0.8746 H       1  LIG1        0.0660
@<TRIPOS>BOND
     1    13    10    1
     2    11    10    1
     3    10     9    1
     4    10    12    1
     5     9     3    1
     6     6     1    1
     7     8     2    1
     8     1     2   ar
     9     1     5   ar
    10     2     3   ar
    11     3     4   ar
    12     4     5   ar
    13     4     7    1
