@<TRIPOS>MOLECULE
mol_data/noopt/geoms/mol2/5al5al-.out
 24 25 0 0 0
SMALL
GASTEIGER

@<TRIPOS>ATOM
      1 C          -2.0792   -1.7080   -0.0002 C.ar    1  LIG1       -0.0202
      2 C          -0.7020   -1.7080   -0.0002 C.ar    1  LIG1       -0.0123
      3 C          -0.1766   -0.3757   -0.0002 C.ar    1  LIG1        0.1353
      4 C          -1.1831    0.5643    0.0006 C.ar    1  LIG1        0.0676
      5 S          -2.6937   -0.1528    0.0006 S.2     1  LIG1       -0.0924
      6 H          -2.8374   -2.7640   -0.0008 H       1  LIG1        0.0695
      7 H           0.0503   -2.7682   -0.0004 H       1  LIG1        0.0660
      8 O           1.0969   -0.1143   -0.0009 O.3     1  LIG1       -0.4939
      9 C           1.8355   -1.3388   -0.0012 C.3     1  LIG1        0.0788
     10 H           2.8835   -1.1232   -0.0020 H       1  LIG1        0.0660
     11 H           1.5884   -1.9046    0.8727 H       1  LIG1        0.0660
     12 H           1.5872   -1.9049   -0.8746 H       1  LIG1        0.0660
     13 C          -1.0166    1.8536    0.0014 C.ar    1  LIG1        0.0330
     14 C           0.1958    2.5069    0.0015 C.ar    1  LIG1       -0.0045
     15 C           0.0263    3.9290    0.0017 C.ar    1  LIG1        0.1277
     16 C          -1.3057    4.2790    0.0026 C.ar    1  LIG1        0.0180
     17 S          -2.2953    2.9311    0.0023 S.2     1  LIG1       -0.0923
     18 H          -1.7708    5.4930    0.0035 H       1  LIG1        0.0730
     19 H           1.3610    1.9305    0.0013 H       1  LIG1        0.0666
     20 O           1.0233    4.7633    0.0012 O.3     1  LIG1       -0.4946
     21 C           2.2544    4.0357    0.0009 C.3     1  LIG1        0.0788
     22 H           3.0747    4.7226    0.0003 H       1  LIG1        0.0660
     23 H           2.3052    3.4203    0.8748 H       1  LIG1        0.0660
     24 H           2.3044    3.4196   -0.8725 H       1  LIG1        0.0660
@<TRIPOS>BOND
     1    12     9    1
     2    24    21    1
     3    10     9    1
     4     9     8    1
     5     9    11    1
     6     8     3    1
     7     6     1    1
     8     7     2    1
     9     1     2   ar
    10     1     5   ar
    11     3     2   ar
    12     3     4   ar
    13    22    21    1
    14     5     4   ar
    15     4    13    1
    16    21    20    1
    17    21    23    1
    18    20    15    1
    19    19    14    1
    20    13    14   ar
    21    13    17   ar
    22    14    15   ar
    23    15    16   ar
    24    17    16   ar
    25    16    18    1
