@<TRIPOS>MOLECULE
mol_data/noopt/geoms/mol2/5al5al-5al5al.out
 46 49 0 0 0
SMALL
GASTEIGER

@<TRIPOS>ATOM
      1 C          -2.0792   -1.7080   -0.0002 C.ar    1  LIG1       -0.0202
      2 C          -0.7020   -1.7080   -0.0002 C.ar    1  LIG1       -0.0123
      3 C          -0.1766   -0.3757   -0.0002 C.ar    1  LIG1        0.1353
      4 C          -1.1831    0.5643    0.0006 C.ar    1  LIG1        0.0676
      5 S          -2.6937   -0.1528    0.0006 S.2     1  LIG1       -0.0924
      6 H          -2.8374   -2.7640   -0.0008 H       1  LIG1        0.0695
      7 H           0.0503   -2.7682   -0.0004 H       1  LIG1        0.0660
      8 O           1.0969   -0.1143   -0.0009 O.3     1  LIG1       -0.4939
      9 C           1.8355   -1.3388   -0.0012 C.3     1  LIG1        0.0788
     10 H           2.8835   -1.1232   -0.0020 H       1  LIG1        0.0660
     11 H           1.5884   -1.9046    0.8727 H       1  LIG1        0.0660
     12 H           1.5872   -1.9049   -0.8746 H       1  LIG1        0.0660
     13 C          -1.0166    1.8536    0.0014 C.ar    1  LIG1        0.0336
     14 C           0.1958    2.5069    0.0015 C.ar    1  LIG1       -0.0039
     15 C           0.0263    3.9290    0.0017 C.ar    1  LIG1        0.1359
     16 C          -1.3057    4.2790    0.0026 C.ar    1  LIG1        0.0682
     17 S          -2.2953    2.9311    0.0023 S.2     1  LIG1       -0.0833
     18 H           1.3610    1.9305    0.0013 H       1  LIG1        0.0666
     19 O           1.0233    4.7633    0.0012 O.3     1  LIG1       -0.4939
     20 C           2.2544    4.0357    0.0009 C.3     1  LIG1        0.0788
     21 H           3.0747    4.7226    0.0003 H       1  LIG1        0.0660
     22 H           2.3052    3.4203    0.8748 H       1  LIG1        0.0660
     23 H           2.3044    3.4196   -0.8725 H       1  LIG1        0.0660
     24 C          -1.7708    5.4930    0.0035 C.ar    1  LIG1        0.0336
     25 C          -1.0134    6.6433    0.0038 C.ar    1  LIG1       -0.0039
     26 C          -1.8373    7.8147    0.0042 C.ar    1  LIG1        0.1359
     27 C          -3.1759    7.4910    0.0050 C.ar    1  LIG1        0.0682
     28 S          -3.4076    5.8350    0.0046 S.2     1  LIG1       -0.0833
     29 H           0.2858    6.6886    0.0035 H       1  LIG1        0.0666
     30 O          -1.3553    9.0221    0.0038 O.3     1  LIG1       -0.4939
     31 C           0.0736    8.9657    0.0035 C.3     1  LIG1        0.0788
     32 H           0.4699    9.9596    0.0030 H       1  LIG1        0.0660
     33 H           0.4102    8.4479    0.8774 H       1  LIG1        0.0660
     34 H           0.4099    8.4472   -0.8699 H       1  LIG1        0.0660
     35 C          -4.1612    8.3391    0.0062 C.ar    1  LIG1        0.0330
     36 C          -4.0402    9.7108    0.0254 C.ar    1  LIG1       -0.0045
     37 C          -5.3212   10.3513    0.0201 C.ar    1  LIG1        0.1277
     38 C          -6.3459    9.4314   -0.0022 C.ar    1  LIG1        0.0180
     39 S          -5.7642    7.8638   -0.0165 S.2     1  LIG1       -0.0923
     40 H          -7.6155    9.7107   -0.0114 H       1  LIG1        0.0730
     41 H          -2.9181   10.3669    0.0458 H       1  LIG1        0.0666
     42 O          -5.4697   11.6427    0.0347 O.3     1  LIG1       -0.4946
     43 C          -4.1851   12.2709    0.0400 C.3     1  LIG1        0.0788
     44 H          -4.3078   13.3338    0.0518 H       1  LIG1        0.0660
     45 H          -3.6420   11.9649    0.9097 H       1  LIG1        0.0660
     46 H          -3.6442   11.9841   -0.8375 H       1  LIG1        0.0660
@<TRIPOS>BOND
     1    12     9    1
     2    23    20    1
     3    34    31    1
     4    46    43    1
     5    39    38   ar
     6    39    35   ar
     7    40    38    1
     8    38    37   ar
     9    10     9    1
    10     9     8    1
    11     9    11    1
    12     8     3    1
    13     6     1    1
    14     7     2    1
    15     1     2   ar
    16     1     5   ar
    17     2     3   ar
    18     3     4   ar
    19    21    20    1
    20     4     5   ar
    21     4    13    1
    22    20    19    1
    23    20    22    1
    24    19    15    1
    25    18    14    1
    26    13    14   ar
    27    13    17   ar
    28    14    15   ar
    29    15    16   ar
    30    17    16   ar
    31    16    24    1
    32    32    31    1
    33    29    25    1
    34    31    30    1
    35    31    33    1
    36    24    25   ar
    37    24    28   ar
    38    30    26    1
    39    25    26   ar
    40    26    27   ar
    41    28    27   ar
    42    27    35    1
    43    35    36   ar
    44    37    36   ar
    45    37    42    1
    46    36    41    1
    47    42    43    1
    48    43    44    1
    49    43    45    1
