@<TRIPOS>MOLECULE
mol_data/noopt/geoms/mol2/5al5al-5al-5al-.out
 46 49 0 0 0
SMALL
GASTEIGER

@<TRIPOS>ATOM
      1 C          -2.0792   -1.7080   -0.0002 C.ar    1  LIG1       -0.0202
      2 C          -0.7020   -1.7080   -0.0002 C.ar    1  LIG1       -0.0123
      3 C          -0.1766   -0.3757   -0.0002 C.ar    1  LIG1        0.1353
      4 C          -1.1831    0.5643    0.0006 C.ar    1  LIG1        0.0676
      5 S          -2.6937   -0.1528    0.0006 S.2     1  LIG1       -0.0924
      6 H          -2.8374   -2.7640   -0.0008 H       1  LIG1        0.0695
      7 H           0.0503   -2.7682   -0.0004 H       1  LIG1        0.0660
      8 O           1.0969   -0.1143   -0.0009 O.3     1  LIG1       -0.4939
      9 C           1.8355   -1.3388   -0.0012 C.3     1  LIG1        0.0788
     10 H           2.8835   -1.1232   -0.0020 H       1  LIG1        0.0660
     11 H           1.5884   -1.9046    0.8727 H       1  LIG1        0.0660
     12 H           1.5872   -1.9049   -0.8746 H       1  LIG1        0.0660
     13 C          -1.0166    1.8536    0.0014 C.ar    1  LIG1        0.0336
     14 C           0.1958    2.5069    0.0015 C.ar    1  LIG1       -0.0039
     15 C           0.0263    3.9290    0.0017 C.ar    1  LIG1        0.1359
     16 C          -1.3057    4.2790    0.0026 C.ar    1  LIG1        0.0682
     17 S          -2.2953    2.9311    0.0023 S.2     1  LIG1       -0.0833
     18 H           1.3610    1.9305    0.0013 H       1  LIG1        0.0666
     19 O           1.0233    4.7633    0.0012 O.3     1  LIG1       -0.4939
     20 C           2.2544    4.0357    0.0009 C.3     1  LIG1        0.0788
     21 H           3.0747    4.7226    0.0003 H       1  LIG1        0.0660
     22 H           2.3052    3.4203    0.8748 H       1  LIG1        0.0660
     23 H           2.3044    3.4196   -0.8725 H       1  LIG1        0.0660
     24 C          -1.7708    5.4930    0.0035 C.ar    1  LIG1        0.0336
     25 C          -1.0136    6.6432    0.0227 C.ar    1  LIG1       -0.0039
     26 C          -1.8374    7.8147    0.0172 C.ar    1  LIG1        0.1359
     27 C          -3.1758    7.4910   -0.0051 C.ar    1  LIG1        0.0682
     28 S          -3.4074    5.8351   -0.0192 S.2     1  LIG1       -0.0833
     29 H           0.2855    6.6885    0.0432 H       1  LIG1        0.0666
     30 O          -1.3555    9.0221    0.0317 O.3     1  LIG1       -0.4939
     31 C           0.0734    8.9656    0.0369 C.3     1  LIG1        0.0788
     32 H           0.4696    9.9595    0.0487 H       1  LIG1        0.0660
     33 H           0.4064    8.4386    0.9067 H       1  LIG1        0.0660
     34 H           0.4135    8.4565   -0.8405 H       1  LIG1        0.0660
     35 C          -4.1610    8.3391   -0.0144 C.ar    1  LIG1        0.0330
     36 C          -4.0399    9.7110   -0.0205 C.ar    1  LIG1       -0.0045
     37 C          -5.3208   10.3515   -0.0311 C.ar    1  LIG1        0.1277
     38 C          -6.3457    9.4315   -0.0316 C.ar    1  LIG1        0.0180
     39 S          -5.7642    7.8638   -0.0205 S.2     1  LIG1       -0.0923
     40 H          -7.6153    9.7107   -0.0396 H       1  LIG1        0.0730
     41 H          -2.9176   10.3672   -0.0175 H       1  LIG1        0.0666
     42 O          -5.4692   11.6430   -0.0391 O.3     1  LIG1       -0.4946
     43 C          -4.1845   12.2710   -0.0421 C.3     1  LIG1        0.0788
     44 H          -4.3070   13.3340   -0.0488 H       1  LIG1        0.0660
     45 H          -3.6431   11.9800    0.8339 H       1  LIG1        0.0660
     46 H          -3.6419   11.9691   -0.9134 H       1  LIG1        0.0660
@<TRIPOS>BOND
     1    46    43    1
     2    12     9    1
     3    23    20    1
     4    34    31    1
     5    44    43    1
     6    43    42    1
     7    43    45    1
     8    40    38    1
     9    42    37    1
    10    38    37   ar
    11    38    39   ar
    12    37    36   ar
    13    36    41    1
    14    36    35   ar
    15    39    35   ar
    16    28    27   ar
    17    28    24   ar
    18    35    27    1
    19    27    26   ar
    20    10     9    1
    21     9     8    1
    22     9    11    1
    23     8     3    1
    24     6     1    1
    25     7     2    1
    26     1     2   ar
    27     1     5   ar
    28     2     3   ar
    29     3     4   ar
    30    21    20    1
    31     4     5   ar
    32     4    13    1
    33    20    19    1
    34    20    22    1
    35    19    15    1
    36    18    14    1
    37    13    14   ar
    38    13    17   ar
    39    14    15   ar
    40    15    16   ar
    41    17    16   ar
    42    16    24    1
    43    24    25   ar
    44    26    25   ar
    45    26    30    1
    46    25    29    1
    47    30    31    1
    48    31    32    1
    49    31    33    1
