@<TRIPOS>MOLECULE
mol_data/noopt/geoms/mol2/5al5al5al-.out
 35 37 0 0 0
SMALL
GASTEIGER

@<TRIPOS>ATOM
      1 C          -2.0792   -1.7080   -0.0002 C.ar    1  LIG1       -0.0202
      2 C          -0.7020   -1.7080   -0.0002 C.ar    1  LIG1       -0.0123
      3 C          -0.1766   -0.3757   -0.0002 C.ar    1  LIG1        0.1353
      4 C          -1.1831    0.5643    0.0006 C.ar    1  LIG1        0.0676
      5 S          -2.6937   -0.1528    0.0006 S.2     1  LIG1       -0.0924
      6 H          -2.8374   -2.7640   -0.0008 H       1  LIG1        0.0695
      7 H           0.0503   -2.7682   -0.0004 H       1  LIG1        0.0660
      8 O           1.0969   -0.1143   -0.0009 O.3     1  LIG1       -0.4939
      9 C           1.8355   -1.3388   -0.0012 C.3     1  LIG1        0.0788
     10 H           2.8835   -1.1232   -0.0020 H       1  LIG1        0.0660
     11 H           1.5884   -1.9046    0.8727 H       1  LIG1        0.0660
     12 H           1.5872   -1.9049   -0.8746 H       1  LIG1        0.0660
     13 C          -1.0166    1.8536    0.0014 C.ar    1  LIG1        0.0336
     14 C           0.1956    2.5069    0.0205 C.ar    1  LIG1       -0.0039
     15 C           0.0262    3.9290    0.0147 C.ar    1  LIG1        0.1359
     16 C          -1.3056    4.2790   -0.0075 C.ar    1  LIG1        0.0682
     17 S          -2.2951    2.9311   -0.0215 S.2     1  LIG1       -0.0833
     18 H           1.3607    1.9305    0.0410 H       1  LIG1        0.0666
     19 O           1.0231    4.7633    0.0291 O.3     1  LIG1       -0.4939
     20 C           2.2542    4.0357    0.0343 C.3     1  LIG1        0.0788
     21 H           3.0745    4.7227    0.0460 H       1  LIG1        0.0660
     22 H           2.2974    3.4139    0.9041 H       1  LIG1        0.0660
     23 H           2.3120    3.4261   -0.8431 H       1  LIG1        0.0660
     24 C          -1.7706    5.4930   -0.0170 C.ar    1  LIG1        0.0330
     25 C          -1.0134    6.6433   -0.0043 C.ar    1  LIG1       -0.0045
     26 C          -1.8371    7.8147   -0.0210 C.ar    1  LIG1        0.1277
     27 C          -3.1754    7.4910   -0.0446 C.ar    1  LIG1        0.0180
     28 S          -3.4072    5.8350   -0.0470 S.2     1  LIG1       -0.0923
     29 H          -4.1606    8.3390   -0.0631 H       1  LIG1        0.0730
     30 H           0.2856    6.6886    0.0196 H       1  LIG1        0.0666
     31 O          -1.3551    9.0221   -0.0141 O.3     1  LIG1       -0.4946
     32 C           0.0737    8.9657   -0.0117 C.3     1  LIG1        0.0788
     33 H           0.4700    9.9596   -0.0062 H       1  LIG1        0.0660
     34 H           0.4086    8.4435    0.8602 H       1  LIG1        0.0660
     35 H           0.4119    8.4518   -0.8871 H       1  LIG1        0.0660
@<TRIPOS>BOND
     1    35    32    1
     2    12     9    1
     3    23    20    1
     4    29    27    1
     5    28    27   ar
     6    28    24   ar
     7    27    26   ar
     8    17    16   ar
     9    17    13   ar
    10    26    31    1
    11    26    25   ar
    12    24    16    1
    13    24    25   ar
    14    31    32    1
    15    32    33    1
    16    32    34    1
    17    16    15   ar
    18    25    30    1
    19    10     9    1
    20     9     8    1
    21     9    11    1
    22     8     3    1
    23     6     1    1
    24     7     2    1
    25     1     2   ar
    26     1     5   ar
    27     3     2   ar
    28     3     4   ar
    29     5     4   ar
    30     4    13    1
    31    13    14   ar
    32    15    14   ar
    33    15    19    1
    34    14    18    1
    35    19    20    1
    36    20    21    1
    37    20    22    1
