@<TRIPOS>MOLECULE
mol_data/noopt/geoms/mol2/5al5al-5al5al-.out
 46 49 0 0 0
SMALL
GASTEIGER

@<TRIPOS>ATOM
      1 C          -2.0792   -1.7080   -0.0002 C.ar    1  LIG1       -0.0202
      2 C          -0.7020   -1.7080   -0.0002 C.ar    1  LIG1       -0.0123
      3 C          -0.1766   -0.3757   -0.0002 C.ar    1  LIG1        0.1353
      4 C          -1.1831    0.5643    0.0006 C.ar    1  LIG1        0.0676
      5 S          -2.6937   -0.1528    0.0006 S.2     1  LIG1       -0.0924
      6 H          -2.8374   -2.7640   -0.0008 H       1  LIG1        0.0695
      7 H           0.0503   -2.7682   -0.0004 H       1  LIG1        0.0660
      8 O           1.0969   -0.1143   -0.0009 O.3     1  LIG1       -0.4939
      9 C           1.8355   -1.3388   -0.0012 C.3     1  LIG1        0.0788
     10 H           2.8835   -1.1232   -0.0020 H       1  LIG1        0.0660
     11 H           1.5884   -1.9046    0.8727 H       1  LIG1        0.0660
     12 H           1.5872   -1.9049   -0.8746 H       1  LIG1        0.0660
     13 C          -1.0166    1.8536    0.0014 C.ar    1  LIG1        0.0336
     14 C           0.1958    2.5069    0.0015 C.ar    1  LIG1       -0.0039
     15 C           0.0263    3.9290    0.0017 C.ar    1  LIG1        0.1359
     16 C          -1.3057    4.2790    0.0026 C.ar    1  LIG1        0.0682
     17 S          -2.2953    2.9311    0.0023 S.2     1  LIG1       -0.0833
     18 H           1.3610    1.9305    0.0013 H       1  LIG1        0.0666
     19 O           1.0233    4.7633    0.0012 O.3     1  LIG1       -0.4939
     20 C           2.2544    4.0357    0.0009 C.3     1  LIG1        0.0788
     21 H           3.0747    4.7226    0.0003 H       1  LIG1        0.0660
     22 H           2.3052    3.4203    0.8748 H       1  LIG1        0.0660
     23 H           2.3044    3.4196   -0.8725 H       1  LIG1        0.0660
     24 C          -1.7708    5.4930    0.0035 C.ar    1  LIG1        0.0336
     25 C          -1.0134    6.6433    0.0038 C.ar    1  LIG1       -0.0039
     26 C          -1.8373    7.8147    0.0042 C.ar    1  LIG1        0.1359
     27 C          -3.1759    7.4910    0.0050 C.ar    1  LIG1        0.0682
     28 S          -3.4076    5.8350    0.0046 S.2     1  LIG1       -0.0833
     29 H           0.2858    6.6886    0.0035 H       1  LIG1        0.0666
     30 O          -1.3553    9.0221    0.0038 O.3     1  LIG1       -0.4939
     31 C           0.0736    8.9657    0.0035 C.3     1  LIG1        0.0788
     32 H           0.4699    9.9596    0.0030 H       1  LIG1        0.0660
     33 H           0.4102    8.4479    0.8774 H       1  LIG1        0.0660
     34 H           0.4099    8.4472   -0.8699 H       1  LIG1        0.0660
     35 C          -4.1612    8.3391    0.0062 C.ar    1  LIG1        0.0330
     36 C          -4.0401    9.7109    0.0065 C.ar    1  LIG1       -0.0045
     37 C          -5.3211   10.3514    0.0071 C.ar    1  LIG1        0.1277
     38 C          -6.3459    9.4314    0.0079 C.ar    1  LIG1        0.0180
     39 S          -5.7643    7.8636    0.0073 S.2     1  LIG1       -0.0923
     40 H          -7.6156    9.7105    0.0092 H       1  LIG1        0.0730
     41 H          -2.9179   10.3672    0.0061 H       1  LIG1        0.0666
     42 O          -5.4696   11.6429    0.0067 O.3     1  LIG1       -0.4946
     43 C          -4.1849   12.2710    0.0066 C.3     1  LIG1        0.0788
     44 H          -4.3076   13.3340    0.0061 H       1  LIG1        0.0660
     45 H          -3.6430   11.9749    0.8804 H       1  LIG1        0.0660
     46 H          -3.6429   11.9742   -0.8669 H       1  LIG1        0.0660
@<TRIPOS>BOND
     1    12     9    1
     2    23    20    1
     3    34    31    1
     4    46    43    1
     5    10     9    1
     6     9     8    1
     7     9    11    1
     8     8     3    1
     9     6     1    1
    10     7     2    1
    11     1     2   ar
    12     1     5   ar
    13     2     3   ar
    14     3     4   ar
    15    21    20    1
    16     5     4   ar
    17     4    13    1
    18    20    19    1
    19    20    22    1
    20    19    15    1
    21    18    14    1
    22    13    14   ar
    23    13    17   ar
    24    14    15   ar
    25    15    16   ar
    26    17    16   ar
    27    16    24    1
    28    32    31    1
    29    29    25    1
    30    31    30    1
    31    31    33    1
    32    24    25   ar
    33    24    28   ar
    34    30    26    1
    35    25    26   ar
    36    26    27   ar
    37    28    27   ar
    38    27    35    1
    39    41    36    1
    40    44    43    1
    41    35    36   ar
    42    35    39   ar
    43    36    37   ar
    44    43    42    1
    45    43    45    1
    46    42    37    1
    47    37    38   ar
    48    39    38   ar
    49    38    40    1
