@<TRIPOS>MOLECULE
mol_data/noopt/geoms/mol2/5al5al5al-5al.out
 46 49 0 0 0
SMALL
GASTEIGER

@<TRIPOS>ATOM
      1 C          -2.0792   -1.7080   -0.0002 C.ar    1  LIG1       -0.0202
      2 C          -0.7020   -1.7080   -0.0002 C.ar    1  LIG1       -0.0123
      3 C          -0.1766   -0.3757   -0.0002 C.ar    1  LIG1        0.1353
      4 C          -1.1831    0.5643    0.0006 C.ar    1  LIG1        0.0676
      5 S          -2.6937   -0.1528    0.0006 S.2     1  LIG1       -0.0924
      6 H          -2.8374   -2.7640   -0.0008 H       1  LIG1        0.0695
      7 H           0.0503   -2.7682   -0.0004 H       1  LIG1        0.0660
      8 O           1.0969   -0.1143   -0.0009 O.3     1  LIG1       -0.4939
      9 C           1.8355   -1.3388   -0.0012 C.3     1  LIG1        0.0788
     10 H           2.8835   -1.1232   -0.0020 H       1  LIG1        0.0660
     11 H           1.5884   -1.9046    0.8727 H       1  LIG1        0.0660
     12 H           1.5872   -1.9049   -0.8746 H       1  LIG1        0.0660
     13 C          -1.0166    1.8536    0.0014 C.ar    1  LIG1        0.0336
     14 C           0.1956    2.5069    0.0205 C.ar    1  LIG1       -0.0039
     15 C           0.0262    3.9290    0.0147 C.ar    1  LIG1        0.1359
     16 C          -1.3056    4.2790   -0.0075 C.ar    1  LIG1        0.0682
     17 S          -2.2951    2.9311   -0.0215 S.2     1  LIG1       -0.0833
     18 H           1.3607    1.9305    0.0410 H       1  LIG1        0.0666
     19 O           1.0231    4.7633    0.0291 O.3     1  LIG1       -0.4939
     20 C           2.2542    4.0357    0.0343 C.3     1  LIG1        0.0788
     21 H           3.0745    4.7227    0.0460 H       1  LIG1        0.0660
     22 H           2.2974    3.4139    0.9041 H       1  LIG1        0.0660
     23 H           2.3120    3.4261   -0.8431 H       1  LIG1        0.0660
     24 C          -1.7706    5.4930   -0.0170 C.ar    1  LIG1        0.0336
     25 C          -1.0134    6.6433   -0.0043 C.ar    1  LIG1       -0.0039
     26 C          -1.8371    7.8147   -0.0210 C.ar    1  LIG1        0.1359
     27 C          -3.1754    7.4910   -0.0446 C.ar    1  LIG1        0.0682
     28 S          -3.4072    5.8350   -0.0470 S.2     1  LIG1       -0.0833
     29 H           0.2856    6.6886    0.0196 H       1  LIG1        0.0666
     30 O          -1.3551    9.0221   -0.0141 O.3     1  LIG1       -0.4939
     31 C           0.0737    8.9657   -0.0117 C.3     1  LIG1        0.0788
     32 H           0.4700    9.9596   -0.0062 H       1  LIG1        0.0660
     33 H           0.4086    8.4435    0.8602 H       1  LIG1        0.0660
     34 H           0.4119    8.4518   -0.8871 H       1  LIG1        0.0660
     35 C          -4.1606    8.3390   -0.0631 C.ar    1  LIG1        0.0330
     36 C          -4.0397    9.7109   -0.0560 C.ar    1  LIG1       -0.0045
     37 C          -5.3204   10.3513   -0.0823 C.ar    1  LIG1        0.1277
     38 C          -6.3449    9.4313   -0.1072 C.ar    1  LIG1        0.0180
     39 S          -5.7633    7.8636   -0.0994 S.2     1  LIG1       -0.0923
     40 H          -7.6143    9.7105   -0.1337 H       1  LIG1        0.0730
     41 H          -2.9178   10.3671   -0.0292 H       1  LIG1        0.0666
     42 O          -5.4689   11.6429   -0.0821 O.3     1  LIG1       -0.4946
     43 C          -4.1843   12.2710   -0.0821 C.3     1  LIG1        0.0788
     44 H          -4.3070   13.3340   -0.0821 H       1  LIG1        0.0660
     45 H          -3.6423   11.9746    0.7916 H       1  LIG1        0.0660
     46 H          -3.6423   11.9746   -0.9557 H       1  LIG1        0.0660
@<TRIPOS>BOND
     1    46    43    1
     2    34    31    1
     3    12     9    1
     4    23    20    1
     5    40    38    1
     6    38    39   ar
     7    38    37   ar
     8    39    35   ar
     9    37    42    1
    10    37    36   ar
    11    44    43    1
    12    43    42    1
    13    43    45    1
    14    35    36   ar
    15    35    27    1
    16    36    41    1
    17    28    27   ar
    18    28    24   ar
    19    27    26   ar
    20    17    16   ar
    21    17    13   ar
    22    26    30    1
    23    26    25   ar
    24    24    16    1
    25    24    25   ar
    26    30    31    1
    27    31    32    1
    28    31    33    1
    29    16    15   ar
    30    25    29    1
    31    10     9    1
    32     9     8    1
    33     9    11    1
    34     8     3    1
    35     6     1    1
    36     7     2    1
    37     1     2   ar
    38     1     5   ar
    39     3     2   ar
    40     3     4   ar
    41     4     5   ar
    42     4    13    1
    43    13    14   ar
    44    15    14   ar
    45    15    19    1
    46    14    18    1
    47    19    20    1
    48    20    21    1
    49    20    22    1
