@<TRIPOS>MOLECULE
mol_data/noopt/geoms/mol2/5al5al-5al.out
 35 37 0 0 0
SMALL
GASTEIGER

@<TRIPOS>ATOM
      1 C          -2.0792   -1.7080   -0.0002 C.ar    1  LIG1       -0.0202
      2 C          -0.7020   -1.7080   -0.0002 C.ar    1  LIG1       -0.0123
      3 C          -0.1766   -0.3757   -0.0002 C.ar    1  LIG1        0.1353
      4 C          -1.1831    0.5643    0.0006 C.ar    1  LIG1        0.0676
      5 S          -2.6937   -0.1528    0.0006 S.2     1  LIG1       -0.0924
      6 H          -2.8374   -2.7640   -0.0008 H       1  LIG1        0.0695
      7 H           0.0503   -2.7682   -0.0004 H       1  LIG1        0.0660
      8 O           1.0969   -0.1143   -0.0009 O.3     1  LIG1       -0.4939
      9 C           1.8355   -1.3388   -0.0012 C.3     1  LIG1        0.0788
     10 H           2.8835   -1.1232   -0.0020 H       1  LIG1        0.0660
     11 H           1.5884   -1.9046    0.8727 H       1  LIG1        0.0660
     12 H           1.5872   -1.9049   -0.8746 H       1  LIG1        0.0660
     13 C          -1.0166    1.8536    0.0014 C.ar    1  LIG1        0.0336
     14 C           0.1958    2.5069    0.0015 C.ar    1  LIG1       -0.0039
     15 C           0.0263    3.9290    0.0017 C.ar    1  LIG1        0.1359
     16 C          -1.3057    4.2790    0.0026 C.ar    1  LIG1        0.0682
     17 S          -2.2953    2.9311    0.0023 S.2     1  LIG1       -0.0833
     18 H           1.3610    1.9305    0.0013 H       1  LIG1        0.0666
     19 O           1.0233    4.7633    0.0012 O.3     1  LIG1       -0.4939
     20 C           2.2544    4.0357    0.0009 C.3     1  LIG1        0.0788
     21 H           3.0747    4.7226    0.0003 H       1  LIG1        0.0660
     22 H           2.3052    3.4203    0.8748 H       1  LIG1        0.0660
     23 H           2.3044    3.4196   -0.8725 H       1  LIG1        0.0660
     24 C          -1.7708    5.4930    0.0035 C.ar    1  LIG1        0.0330
     25 C          -1.0134    6.6433    0.0038 C.ar    1  LIG1       -0.0045
     26 C          -1.8373    7.8147    0.0042 C.ar    1  LIG1        0.1277
     27 C          -3.1759    7.4910    0.0050 C.ar    1  LIG1        0.0180
     28 S          -3.4076    5.8350    0.0046 S.2     1  LIG1       -0.0923
     29 H          -4.1612    8.3391    0.0062 H       1  LIG1        0.0730
     30 H           0.2858    6.6886    0.0035 H       1  LIG1        0.0666
     31 O          -1.3553    9.0221    0.0038 O.3     1  LIG1       -0.4946
     32 C           0.0736    8.9657    0.0035 C.3     1  LIG1        0.0788
     33 H           0.4699    9.9596    0.0030 H       1  LIG1        0.0660
     34 H           0.4102    8.4479    0.8774 H       1  LIG1        0.0660
     35 H           0.4099    8.4472   -0.8699 H       1  LIG1        0.0660
@<TRIPOS>BOND
     1    12     9    1
     2    23    20    1
     3    35    32    1
     4    10     9    1
     5     9     8    1
     6     9    11    1
     7     8     3    1
     8     6     1    1
     9     7     2    1
    10     1     2   ar
    11     1     5   ar
    12     3     2   ar
    13     3     4   ar
    14    21    20    1
    15     5     4   ar
    16     4    13    1
    17    20    19    1
    18    20    22    1
    19    19    15    1
    20    18    14    1
    21    13    14   ar
    22    13    17   ar
    23    14    15   ar
    24    15    16   ar
    25    17    16   ar
    26    16    24    1
    27    33    32    1
    28    30    25    1
    29    32    31    1
    30    32    34    1
    31    24    25   ar
    32    24    28   ar
    33    31    26    1
    34    25    26   ar
    35    26    27   ar
    36    28    27   ar
    37    27    29    1
