@<TRIPOS>MOLECULE
mol_data/noopt/geoms/mol2/5da.out
 10 10 0 0 0
SMALL
GASTEIGER

@<TRIPOS>ATOM
      1 C          -2.0792   -1.7080   -0.0002 C.ar    1  LIG1       -0.0070
      2 C          -0.7020   -1.7080   -0.0002 C.ar    1  LIG1        0.0588
      3 C          -0.1766   -0.3757   -0.0002 C.ar    1  LIG1       -0.0373
      4 C          -1.1831    0.5643    0.0006 C.ar    1  LIG1       -0.0231
      5 S          -2.6937   -0.1528    0.0006 S.2     1  LIG1       -0.1038
      6 H          -2.8374   -2.7640   -0.0008 H       1  LIG1        0.0706
      7 H          -1.0166    1.8536    0.0014 H       1  LIG1        0.0694
      8 N           0.7138   -3.7033   -0.0006 N.1     1  LIG1       -0.1909
      9 C           0.0503   -2.7682   -0.0004 C.1     1  LIG1        0.0997
     10 H           1.0969   -0.1143   -0.0009 H       1  LIG1        0.0636
@<TRIPOS>BOND
     1    10     3    1
     2     6     1    1
     3     8     9    3
     4     9     2    1
     5     1     2   ar
     6     1     5   ar
     7     2     3   ar
     8     3     4   ar
     9     4     5   ar
    10     4     7    1
