@<TRIPOS>MOLECULE
mol_data/noopt/geoms/mol2/5da5da5da-.out
 26 28 0 0 0
SMALL
GASTEIGER

@<TRIPOS>ATOM
      1 C          -2.0792   -1.7080   -0.0002 C.ar    1  LIG1       -0.0063
      2 C          -0.7020   -1.7080   -0.0002 C.ar    1  LIG1        0.0594
      3 C          -0.1766   -0.3757   -0.0002 C.ar    1  LIG1       -0.0290
      4 C          -1.1831    0.5643    0.0006 C.ar    1  LIG1        0.0284
      5 S          -2.6937   -0.1528    0.0006 S.2     1  LIG1       -0.0948
      6 H          -2.8374   -2.7640   -0.0008 H       1  LIG1        0.0706
      7 N           0.7138   -3.7033   -0.0006 N.1     1  LIG1       -0.1909
      8 C           0.0503   -2.7682   -0.0004 C.1     1  LIG1        0.0997
      9 H           1.0969   -0.1143   -0.0009 H       1  LIG1        0.0642
     10 C          -1.0166    1.8536    0.0014 C.ar    1  LIG1        0.0439
     11 C           0.1956    2.5069    0.0205 C.ar    1  LIG1        0.0676
     12 C           0.0262    3.9290    0.0147 C.ar    1  LIG1       -0.0284
     13 C          -1.3056    4.2790   -0.0075 C.ar    1  LIG1        0.0290
     14 S          -2.2951    2.9311   -0.0215 S.2     1  LIG1       -0.0859
     15 N           2.3882    1.4221    0.0591 N.1     1  LIG1       -0.1908
     16 C           1.3607    1.9305    0.0410 C.1     1  LIG1        0.1003
     17 H           1.0231    4.7632    0.0291 H       1  LIG1        0.0642
     18 C          -1.7706    5.4930   -0.0170 C.ar    1  LIG1        0.0433
     19 C          -1.0134    6.6433   -0.0043 C.ar    1  LIG1        0.0670
     20 C          -1.8371    7.8147   -0.0210 C.ar    1  LIG1       -0.0367
     21 C          -3.1754    7.4910   -0.0446 C.ar    1  LIG1       -0.0225
     22 S          -3.4072    5.8350   -0.0470 S.2     1  LIG1       -0.0948
     23 H          -4.1606    8.3390   -0.0631 H       1  LIG1        0.0694
     24 N           1.4313    6.7286    0.0406 N.1     1  LIG1       -0.1908
     25 C           0.2856    6.6886    0.0196 C.1     1  LIG1        0.1003
     26 H          -1.3552    9.0221   -0.0141 H       1  LIG1        0.0636
@<TRIPOS>BOND
     1    23    21    1
     2    22    21   ar
     3    22    18   ar
     4    21    20   ar
     5    14    13   ar
     6    14    10   ar
     7    20    26    1
     8    20    19   ar
     9    18    13    1
    10    18    19   ar
    11    13    12   ar
    12    19    25    1
    13     9     3    1
    14     6     1    1
    15     7     8    3
    16     8     2    1
    17     1     2   ar
    18     1     5   ar
    19     2     3   ar
    20     3     4   ar
    21     5     4   ar
    22     4    10    1
    23    10    11   ar
    24    12    11   ar
    25    12    17    1
    26    25    24    3
    27    11    16    1
    28    16    15    3
