@<TRIPOS>MOLECULE
mol_data/noopt/geoms/mol2/5da5da.out
 18 19 0 0 0
SMALL
GASTEIGER

@<TRIPOS>ATOM
      1 C          -2.0792   -1.7080   -0.0002 C.ar    1  LIG1       -0.0063
      2 C          -0.7020   -1.7080   -0.0002 C.ar    1  LIG1        0.0594
      3 C          -0.1766   -0.3757   -0.0002 C.ar    1  LIG1       -0.0290
      4 C          -1.1831    0.5643    0.0006 C.ar    1  LIG1        0.0284
      5 S          -2.6937   -0.1528    0.0006 S.2     1  LIG1       -0.0948
      6 H          -2.8374   -2.7640   -0.0008 H       1  LIG1        0.0706
      7 N           0.7138   -3.7033   -0.0006 N.1     1  LIG1       -0.1909
      8 C           0.0503   -2.7682   -0.0004 C.1     1  LIG1        0.0997
      9 H           1.0969   -0.1143   -0.0009 H       1  LIG1        0.0642
     10 C          -1.0166    1.8536    0.0014 C.ar    1  LIG1        0.0432
     11 C           0.1956    2.5069    0.0205 C.ar    1  LIG1        0.0670
     12 C           0.0262    3.9290    0.0147 C.ar    1  LIG1       -0.0367
     13 C          -1.3056    4.2790   -0.0075 C.ar    1  LIG1       -0.0225
     14 S          -2.2951    2.9311   -0.0215 S.2     1  LIG1       -0.0948
     15 H          -1.7706    5.4930   -0.0170 H       1  LIG1        0.0694
     16 N           2.3882    1.4221    0.0591 N.1     1  LIG1       -0.1908
     17 C           1.3607    1.9305    0.0410 C.1     1  LIG1        0.1003
     18 H           1.0231    4.7632    0.0291 H       1  LIG1        0.0636
@<TRIPOS>BOND
     1    14    13   ar
     2    14    10   ar
     3    15    13    1
     4    13    12   ar
     5     9     3    1
     6     6     1    1
     7     7     8    3
     8     8     2    1
     9     2     3   ar
    10     2     1   ar
    11     3     4   ar
    12     1     5   ar
    13     4     5   ar
    14     4    10    1
    15    10    11   ar
    16    12    11   ar
    17    12    18    1
    18    11    17    1
    19    17    16    3
