@<TRIPOS>MOLECULE
mol_data/noopt/geoms/mol2/5da5da5da-5da.out
 34 37 0 0 0
SMALL
GASTEIGER

@<TRIPOS>ATOM
      1 C          -2.0792   -1.7080   -0.0002 C.ar    1  LIG1       -0.0063
      2 C          -0.7020   -1.7080   -0.0002 C.ar    1  LIG1        0.0594
      3 C          -0.1766   -0.3757   -0.0002 C.ar    1  LIG1       -0.0290
      4 C          -1.1831    0.5643    0.0006 C.ar    1  LIG1        0.0284
      5 S          -2.6937   -0.1528    0.0006 S.2     1  LIG1       -0.0948
      6 H          -2.8374   -2.7640   -0.0008 H       1  LIG1        0.0706
      7 N           0.7138   -3.7033   -0.0006 N.1     1  LIG1       -0.1909
      8 C           0.0503   -2.7682   -0.0004 C.1     1  LIG1        0.0997
      9 H           1.0969   -0.1143   -0.0009 H       1  LIG1        0.0642
     10 C          -1.0166    1.8536    0.0014 C.ar    1  LIG1        0.0439
     11 C           0.1956    2.5069    0.0205 C.ar    1  LIG1        0.0676
     12 C           0.0262    3.9290    0.0147 C.ar    1  LIG1       -0.0284
     13 C          -1.3056    4.2790   -0.0075 C.ar    1  LIG1        0.0290
     14 S          -2.2951    2.9311   -0.0215 S.2     1  LIG1       -0.0859
     15 N           2.3882    1.4221    0.0591 N.1     1  LIG1       -0.1908
     16 C           1.3607    1.9305    0.0410 C.1     1  LIG1        0.1003
     17 H           1.0231    4.7632    0.0291 H       1  LIG1        0.0642
     18 C          -1.7706    5.4930   -0.0170 C.ar    1  LIG1        0.0439
     19 C          -1.0134    6.6433   -0.0043 C.ar    1  LIG1        0.0676
     20 C          -1.8371    7.8147   -0.0210 C.ar    1  LIG1       -0.0284
     21 C          -3.1754    7.4910   -0.0446 C.ar    1  LIG1        0.0290
     22 S          -3.4072    5.8350   -0.0470 S.2     1  LIG1       -0.0859
     23 N           1.4313    6.7286    0.0406 N.1     1  LIG1       -0.1908
     24 C           0.2856    6.6886    0.0196 C.1     1  LIG1        0.1003
     25 H          -1.3552    9.0221   -0.0141 H       1  LIG1        0.0642
     26 C          -4.1606    8.3390   -0.0631 C.ar    1  LIG1        0.0433
     27 C          -4.0397    9.7109   -0.0560 C.ar    1  LIG1        0.0670
     28 C          -5.3204   10.3513   -0.0823 C.ar    1  LIG1       -0.0367
     29 C          -6.3449    9.4313   -0.1072 C.ar    1  LIG1       -0.0225
     30 S          -5.7633    7.8636   -0.0994 S.2     1  LIG1       -0.0948
     31 H          -7.6143    9.7105   -0.1337 H       1  LIG1        0.0694
     32 N          -1.9283   10.9459   -0.0055 N.1     1  LIG1       -0.1908
     33 C          -2.9178   10.3671   -0.0292 C.1     1  LIG1        0.1003
     34 H          -5.4689   11.6428   -0.0821 H       1  LIG1        0.0636
@<TRIPOS>BOND
     1    31    29    1
     2    29    30   ar
     3    29    28   ar
     4    30    26   ar
     5    28    34    1
     6    28    27   ar
     7    26    27   ar
     8    26    21    1
     9    27    33    1
    10    22    21   ar
    11    22    18   ar
    12    21    20   ar
    13    33    32    3
    14    14    13   ar
    15    14    10   ar
    16    20    25    1
    17    20    19   ar
    18    18    13    1
    19    18    19   ar
    20    13    12   ar
    21    19    24    1
    22     9     3    1
    23     6     1    1
    24     7     8    3
    25     8     2    1
    26     2     3   ar
    27     2     1   ar
    28     3     4   ar
    29     1     5   ar
    30     5     4   ar
    31     4    10    1
    32    10    11   ar
    33    12    11   ar
    34    12    17    1
    35    24    23    3
    36    11    16    1
    37    16    15    3
