@<TRIPOS>MOLECULE
mol_data/noopt/geoms/mol2/5da5da-5da-.out
 26 28 0 0 0
SMALL
GASTEIGER

@<TRIPOS>ATOM
      1 C          -2.0792   -1.7080   -0.0002 C.ar    1  LIG1       -0.0063
      2 C          -0.7020   -1.7080   -0.0002 C.ar    1  LIG1        0.0594
      3 C          -0.1766   -0.3757   -0.0002 C.ar    1  LIG1       -0.0290
      4 C          -1.1831    0.5643    0.0006 C.ar    1  LIG1        0.0284
      5 S          -2.6937   -0.1528    0.0006 S.2     1  LIG1       -0.0948
      6 H          -2.8374   -2.7640   -0.0008 H       1  LIG1        0.0706
      7 N           0.7138   -3.7033   -0.0006 N.1     1  LIG1       -0.1909
      8 C           0.0503   -2.7682   -0.0004 C.1     1  LIG1        0.0997
      9 H           1.0969   -0.1143   -0.0009 H       1  LIG1        0.0642
     10 C          -1.0166    1.8536    0.0014 C.ar    1  LIG1        0.0439
     11 C           0.1958    2.5069    0.0015 C.ar    1  LIG1        0.0676
     12 C           0.0263    3.9290    0.0017 C.ar    1  LIG1       -0.0284
     13 C          -1.3057    4.2790    0.0026 C.ar    1  LIG1        0.0290
     14 S          -2.2953    2.9311    0.0023 S.2     1  LIG1       -0.0859
     15 N           2.3887    1.4221    0.0010 N.1     1  LIG1       -0.1908
     16 C           1.3610    1.9305    0.0013 C.1     1  LIG1        0.1003
     17 H           1.0233    4.7632    0.0012 H       1  LIG1        0.0642
     18 C          -1.7708    5.4930    0.0035 C.ar    1  LIG1        0.0433
     19 C          -1.0136    6.6432    0.0227 C.ar    1  LIG1        0.0670
     20 C          -1.8374    7.8147    0.0172 C.ar    1  LIG1       -0.0367
     21 C          -3.1758    7.4910   -0.0051 C.ar    1  LIG1       -0.0225
     22 S          -3.4074    5.8351   -0.0192 S.2     1  LIG1       -0.0948
     23 H          -4.1610    8.3391   -0.0144 H       1  LIG1        0.0694
     24 N           1.4312    6.7284    0.0613 N.1     1  LIG1       -0.1908
     25 C           0.2855    6.6885    0.0432 C.1     1  LIG1        0.1003
     26 H          -1.3555    9.0220    0.0317 H       1  LIG1        0.0636
@<TRIPOS>BOND
     1    22    21   ar
     2    22    18   ar
     3    23    21    1
     4    21    20   ar
     5     9     3    1
     6     6     1    1
     7     7     8    3
     8     8     2    1
     9     2     3   ar
    10     2     1   ar
    11     3     4   ar
    12     1     5   ar
    13     4     5   ar
    14     4    10    1
    15    15    16    3
    16    17    12    1
    17    16    11    1
    18    10    11   ar
    19    10    14   ar
    20    11    12   ar
    21    12    13   ar
    22    14    13   ar
    23    13    18    1
    24    18    19   ar
    25    20    19   ar
    26    20    26    1
    27    19    25    1
    28    25    24    3
