@<TRIPOS>MOLECULE
mol_data/noopt/geoms/mol2/5dd5dd5dd5dd.out
 38 44 0 0 0
SMALL
GASTEIGER

@<TRIPOS>ATOM
      1 C          -2.0792   -1.7080   -0.0002 C.ar    1  LIG1       -0.0060
      2 C          -0.7020   -1.7080   -0.0002 C.ar    1  LIG1        0.0645
      3 C          -0.1766   -0.3757   -0.0002 C.ar    1  LIG1        0.0128
      4 C          -1.1831    0.5643    0.0006 C.ar    1  LIG1        0.0327
      5 S          -2.6937   -0.1528    0.0006 S.2     1  LIG1       -0.0945
      6 H          -2.8374   -2.7640   -0.0008 H       1  LIG1        0.0706
      7 N           0.7138   -3.7033   -0.0006 N.1     1  LIG1       -0.1908
      8 C           0.0503   -2.7682   -0.0004 C.1     1  LIG1        0.1000
      9 N           2.2200    0.1162   -0.0015 N.3     1  LIG1       -0.1262
     10 C           1.0969   -0.1143   -0.0009 C.3     1  LIG1        0.1368
     11 C          -1.0166    1.8536    0.0014 C.ar    1  LIG1        0.0324
     12 C           0.1956    2.5069    0.0205 C.ar    1  LIG1        0.0012
     13 C           0.0262    3.9290    0.0147 C.ar    1  LIG1        0.0012
     14 C          -1.3056    4.2790   -0.0075 C.ar    1  LIG1        0.0324
     15 S          -2.2951    2.9311   -0.0215 S.2     1  LIG1       -0.0865
     16 N           2.3882    1.4221    0.0591 N.3     1  LIG1       -0.1262
     17 C           1.3607    1.9305    0.0410 C.3     1  LIG1        0.1359
     18 N           1.9024    5.4990    0.0418 N.3     1  LIG1       -0.1262
     19 C           1.0231    4.7632    0.0291 C.3     1  LIG1        0.1359
     20 C          -1.7706    5.4930   -0.0170 C.ar    1  LIG1        0.0324
     21 C          -1.0132    6.6432   -0.0232 C.ar    1  LIG1        0.0012
     22 C          -1.8369    7.8147   -0.0340 C.ar    1  LIG1        0.0012
     23 C          -3.1756    7.4910   -0.0345 C.ar    1  LIG1        0.0324
     24 S          -3.4074    5.8350   -0.0232 S.2     1  LIG1       -0.0865
     25 N           1.4319    6.7284   -0.0174 N.3     1  LIG1       -0.1262
     26 C           0.2860    6.6885   -0.0202 C.3     1  LIG1        0.1359
     27 N          -0.9297   10.0868   -0.0492 N.3     1  LIG1       -0.1262
     28 C          -1.3549    9.0220   -0.0421 C.3     1  LIG1        0.1359
     29 C          -4.1608    8.3391   -0.0426 C.ar    1  LIG1        0.0327
     30 C          -4.0399    9.7109   -0.0290 C.ar    1  LIG1        0.0128
     31 C          -5.3207   10.3514   -0.0442 C.ar    1  LIG1        0.0645
     32 C          -6.3454    9.4315   -0.0677 C.ar    1  LIG1       -0.0060
     33 S          -5.7637    7.8638   -0.0716 S.2     1  LIG1       -0.0945
     34 H          -7.6149    9.7107   -0.0849 H       1  LIG1        0.0706
     35 N          -1.9282   10.9458    0.0151 N.3     1  LIG1       -0.1262
     36 C          -2.9179   10.3671   -0.0056 C.3     1  LIG1        0.1368
     37 N          -5.6003   12.7820   -0.0294 N.1     1  LIG1       -0.1908
     38 C          -5.4693   11.6429   -0.0363 C.1     1  LIG1        0.1000
@<TRIPOS>BOND
     1    34    32    1
     2    33    32   ar
     3    33    29   ar
     4    32    31   ar
     5    27    28    1
     6    27    35    1
     7    31    38    1
     8    31    30   ar
     9    29    23    1
    10    29    30   ar
    11    28    22    1
    12    38    37    3
    13    23    22   ar
    14    23    24   ar
    15    22    21   ar
    16    30    36    1
    17    21    26    1
    18    21    20   ar
    19    24    20   ar
    20    15    14   ar
    21    15    11   ar
    22    26    25    1
    23    25    18    1
    24    20    14    1
    25    14    13   ar
    26    36    35    1
    27     9    10    1
    28     9    16    1
    29    10     3    1
    30     6     1    1
    31     7     8    3
    32     8     2    1
    33     2     3   ar
    34     2     1   ar
    35     3     4   ar
    36     1     5   ar
    37     5     4   ar
    38     4    11    1
    39    11    12   ar
    40    13    12   ar
    41    13    19    1
    42    12    17    1
    43    19    18    1
    44    17    16    1
