@<TRIPOS>MOLECULE
mol_data/noopt/geoms/mol2/5dd5dd-5dd-5dd.out
 38 44 0 0 0
SMALL
GASTEIGER

@<TRIPOS>ATOM
      1 C          -2.0792   -1.7080   -0.0002 C.ar    1  LIG1       -0.0060
      2 C          -0.7020   -1.7080   -0.0002 C.ar    1  LIG1        0.0645
      3 C          -0.1766   -0.3757   -0.0002 C.ar    1  LIG1        0.0128
      4 C          -1.1831    0.5643    0.0006 C.ar    1  LIG1        0.0327
      5 S          -2.6937   -0.1528    0.0006 S.2     1  LIG1       -0.0945
      6 H          -2.8374   -2.7640   -0.0008 H       1  LIG1        0.0706
      7 N           0.7138   -3.7033   -0.0006 N.1     1  LIG1       -0.1908
      8 C           0.0503   -2.7682   -0.0004 C.1     1  LIG1        0.1000
      9 N           2.2200    0.1162   -0.0015 N.3     1  LIG1       -0.1262
     10 C           1.0969   -0.1143   -0.0009 C.3     1  LIG1        0.1368
     11 C          -1.0166    1.8536    0.0014 C.ar    1  LIG1        0.0324
     12 C           0.1958    2.5069    0.0015 C.ar    1  LIG1        0.0012
     13 C           0.0263    3.9290    0.0017 C.ar    1  LIG1        0.0012
     14 C          -1.3057    4.2790    0.0026 C.ar    1  LIG1        0.0324
     15 S          -2.2953    2.9311    0.0023 S.2     1  LIG1       -0.0865
     16 N           2.3887    1.4221    0.0010 N.3     1  LIG1       -0.1262
     17 C           1.3610    1.9305    0.0013 C.3     1  LIG1        0.1359
     18 N           1.9027    5.4990    0.0007 N.3     1  LIG1       -0.1262
     19 C           1.0233    4.7632    0.0012 C.3     1  LIG1        0.1359
     20 C          -1.7708    5.4930    0.0035 C.ar    1  LIG1        0.0324
     21 C          -1.0136    6.6432    0.0227 C.ar    1  LIG1        0.0012
     22 C          -1.8374    7.8147    0.0172 C.ar    1  LIG1        0.0012
     23 C          -3.1758    7.4910   -0.0051 C.ar    1  LIG1        0.0324
     24 S          -3.4074    5.8351   -0.0192 S.2     1  LIG1       -0.0865
     25 N           1.4312    6.7284    0.0613 N.3     1  LIG1       -0.1262
     26 C           0.2855    6.6885    0.0432 C.3     1  LIG1        0.1359
     27 N          -0.9305   10.0869    0.0445 N.3     1  LIG1       -0.1262
     28 C          -1.3555    9.0220    0.0317 C.3     1  LIG1        0.1359
     29 C          -4.1610    8.3391   -0.0144 C.ar    1  LIG1        0.0327
     30 C          -4.0401    9.7110   -0.0016 C.ar    1  LIG1        0.0128
     31 C          -5.3209   10.3515   -0.0181 C.ar    1  LIG1        0.0645
     32 C          -6.3455    9.4316   -0.0417 C.ar    1  LIG1       -0.0060
     33 S          -5.7639    7.8638   -0.0443 S.2     1  LIG1       -0.0945
     34 H          -7.6151    9.7108   -0.0601 H       1  LIG1        0.0706
     35 N          -1.9285   10.9458    0.0433 N.3     1  LIG1       -0.1262
     36 C          -2.9181   10.3671    0.0222 C.3     1  LIG1        0.1368
     37 N          -5.6005   12.7820   -0.0050 N.1     1  LIG1       -0.1908
     38 C          -5.4695   11.6429   -0.0111 C.1     1  LIG1        0.1000
@<TRIPOS>BOND
     1    34    32    1
     2    33    32   ar
     3    33    29   ar
     4    32    31   ar
     5    24    23   ar
     6    24    20   ar
     7    31    38    1
     8    31    30   ar
     9    29    23    1
    10    29    30   ar
    11    38    37    3
    12    23    22   ar
    13    30    36    1
    14     9    10    1
    15     9    16    1
    16    10     3    1
    17     6     1    1
    18     7     8    3
    19     8     2    1
    20     1     2   ar
    21     1     5   ar
    22     2     3   ar
    23     3     4   ar
    24     4     5   ar
    25     4    11    1
    26    18    19    1
    27    18    25    1
    28    16    17    1
    29    19    13    1
    30    17    12    1
    31    11    12   ar
    32    11    15   ar
    33    12    13   ar
    34    13    14   ar
    35    15    14   ar
    36    14    20    1
    37    20    21   ar
    38    22    21   ar
    39    22    28    1
    40    36    35    1
    41    21    26    1
    42    28    27    1
    43    26    25    1
    44    35    27    1
