@<TRIPOS>MOLECULE
mol_data/noopt/geoms/mol2/5dd5dd5dd-.out
 29 33 0 0 0
SMALL
GASTEIGER

@<TRIPOS>ATOM
      1 C          -2.0792   -1.7080   -0.0002 C.ar    1  LIG1       -0.0060
      2 C          -0.7020   -1.7080   -0.0002 C.ar    1  LIG1        0.0645
      3 C          -0.1766   -0.3757   -0.0002 C.ar    1  LIG1        0.0128
      4 C          -1.1831    0.5643    0.0006 C.ar    1  LIG1        0.0327
      5 S          -2.6937   -0.1528    0.0006 S.2     1  LIG1       -0.0945
      6 H          -2.8374   -2.7640   -0.0008 H       1  LIG1        0.0706
      7 N           0.7138   -3.7033   -0.0006 N.1     1  LIG1       -0.1908
      8 C           0.0503   -2.7682   -0.0004 C.1     1  LIG1        0.1000
      9 N           2.2200    0.1162   -0.0015 N.3     1  LIG1       -0.1262
     10 C           1.0969   -0.1143   -0.0009 C.3     1  LIG1        0.1368
     11 C          -1.0166    1.8536    0.0014 C.ar    1  LIG1        0.0324
     12 C           0.1956    2.5069    0.0205 C.ar    1  LIG1        0.0012
     13 C           0.0262    3.9290    0.0147 C.ar    1  LIG1        0.0012
     14 C          -1.3056    4.2790   -0.0075 C.ar    1  LIG1        0.0324
     15 S          -2.2951    2.9311   -0.0215 S.2     1  LIG1       -0.0865
     16 N           2.3882    1.4221    0.0591 N.3     1  LIG1       -0.1262
     17 C           1.3607    1.9305    0.0410 C.3     1  LIG1        0.1359
     18 N           1.9024    5.4990    0.0418 N.3     1  LIG1       -0.1262
     19 C           1.0231    4.7632    0.0291 C.3     1  LIG1        0.1359
     20 C          -1.7706    5.4930   -0.0170 C.ar    1  LIG1        0.0327
     21 C          -1.0134    6.6433   -0.0043 C.ar    1  LIG1        0.0128
     22 C          -1.8371    7.8147   -0.0210 C.ar    1  LIG1        0.0645
     23 C          -3.1754    7.4910   -0.0446 C.ar    1  LIG1       -0.0060
     24 S          -3.4072    5.8350   -0.0470 S.2     1  LIG1       -0.0945
     25 H          -4.1606    8.3390   -0.0631 H       1  LIG1        0.0706
     26 N           1.4313    6.7286    0.0406 N.3     1  LIG1       -0.1262
     27 C           0.2856    6.6886    0.0196 C.3     1  LIG1        0.1368
     28 N          -0.9301   10.0870   -0.0081 N.1     1  LIG1       -0.1908
     29 C          -1.3552    9.0221   -0.0141 C.1     1  LIG1        0.1000
@<TRIPOS>BOND
     1    25    23    1
     2    24    23   ar
     3    24    20   ar
     4    23    22   ar
     5    15    14   ar
     6    15    11   ar
     7    22    29    1
     8    22    21   ar
     9    20    14    1
    10    20    21   ar
    11    29    28    3
    12    14    13   ar
    13    21    27    1
    14     9    10    1
    15     9    16    1
    16    10     3    1
    17     6     1    1
    18     7     8    3
    19     8     2    1
    20     1     2   ar
    21     1     5   ar
    22     2     3   ar
    23     3     4   ar
    24     5     4   ar
    25     4    11    1
    26    11    12   ar
    27    13    12   ar
    28    13    19    1
    29    27    26    1
    30    12    17    1
    31    19    18    1
    32    26    18    1
    33    17    16    1
