@<TRIPOS>MOLECULE
mol_data/noopt/geoms/mol2/5dd5dd5dd-5dd-.out
 38 44 0 0 0
SMALL
GASTEIGER

@<TRIPOS>ATOM
      1 C          -2.0792   -1.7080   -0.0002 C.ar    1  LIG1       -0.0060
      2 C          -0.7020   -1.7080   -0.0002 C.ar    1  LIG1        0.0645
      3 C          -0.1766   -0.3757   -0.0002 C.ar    1  LIG1        0.0128
      4 C          -1.1831    0.5643    0.0006 C.ar    1  LIG1        0.0327
      5 S          -2.6937   -0.1528    0.0006 S.2     1  LIG1       -0.0945
      6 H          -2.8374   -2.7640   -0.0008 H       1  LIG1        0.0706
      7 N           0.7138   -3.7033   -0.0006 N.1     1  LIG1       -0.1908
      8 C           0.0503   -2.7682   -0.0004 C.1     1  LIG1        0.1000
      9 N           2.2200    0.1162   -0.0015 N.3     1  LIG1       -0.1262
     10 C           1.0969   -0.1143   -0.0009 C.3     1  LIG1        0.1368
     11 C          -1.0166    1.8536    0.0014 C.ar    1  LIG1        0.0324
     12 C           0.1956    2.5069    0.0205 C.ar    1  LIG1        0.0012
     13 C           0.0262    3.9290    0.0147 C.ar    1  LIG1        0.0012
     14 C          -1.3056    4.2790   -0.0075 C.ar    1  LIG1        0.0324
     15 S          -2.2951    2.9311   -0.0215 S.2     1  LIG1       -0.0865
     16 N           2.3882    1.4221    0.0591 N.3     1  LIG1       -0.1262
     17 C           1.3607    1.9305    0.0410 C.3     1  LIG1        0.1359
     18 N           1.9024    5.4990    0.0418 N.3     1  LIG1       -0.1262
     19 C           1.0231    4.7632    0.0291 C.3     1  LIG1        0.1359
     20 C          -1.7706    5.4930   -0.0170 C.ar    1  LIG1        0.0324
     21 C          -1.0134    6.6433   -0.0043 C.ar    1  LIG1        0.0012
     22 C          -1.8371    7.8147   -0.0210 C.ar    1  LIG1        0.0012
     23 C          -3.1754    7.4910   -0.0446 C.ar    1  LIG1        0.0324
     24 S          -3.4072    5.8350   -0.0470 S.2     1  LIG1       -0.0865
     25 N           1.4313    6.7286    0.0406 N.3     1  LIG1       -0.1262
     26 C           0.2856    6.6886    0.0196 C.3     1  LIG1        0.1359
     27 N          -0.9301   10.0870   -0.0081 N.3     1  LIG1       -0.1262
     28 C          -1.3552    9.0221   -0.0141 C.3     1  LIG1        0.1359
     29 C          -4.1606    8.3390   -0.0631 C.ar    1  LIG1        0.0327
     30 C          -4.0394    9.7108   -0.0749 C.ar    1  LIG1        0.0128
     31 C          -5.3202   10.3513   -0.0953 C.ar    1  LIG1        0.0645
     32 C          -6.3451    9.4313   -0.0971 C.ar    1  LIG1       -0.0060
     33 S          -5.7637    7.8636   -0.0756 S.2     1  LIG1       -0.0945
     34 H          -7.6146    9.7105   -0.1131 H       1  LIG1        0.0706
     35 N          -1.9273   10.9458   -0.0636 N.3     1  LIG1       -0.1262
     36 C          -2.9172   10.3670   -0.0689 C.3     1  LIG1        0.1368
     37 N          -5.5993   12.7818   -0.1230 N.1     1  LIG1       -0.1908
     38 C          -5.4685   11.6427   -0.1100 C.1     1  LIG1        0.1000
@<TRIPOS>BOND
     1    37    38    3
     2    34    32    1
     3    38    31    1
     4    32    31   ar
     5    32    33   ar
     6    31    30   ar
     7    33    29   ar
     8    30    36    1
     9    30    29   ar
    10    36    35    1
    11    35    27    1
    12    29    23    1
    13    24    23   ar
    14    24    20   ar
    15    23    22   ar
    16    15    14   ar
    17    15    11   ar
    18    22    28    1
    19    22    21   ar
    20    20    14    1
    21    20    21   ar
    22    28    27    1
    23    14    13   ar
    24    21    26    1
    25     9    10    1
    26     9    16    1
    27    10     3    1
    28     6     1    1
    29     7     8    3
    30     8     2    1
    31     2     3   ar
    32     2     1   ar
    33     3     4   ar
    34     1     5   ar
    35     5     4   ar
    36     4    11    1
    37    11    12   ar
    38    13    12   ar
    39    13    19    1
    40    26    25    1
    41    12    17    1
    42    19    18    1
    43    25    18    1
    44    17    16    1
