@<TRIPOS>MOLECULE
mol_data/noopt/geoms/mol2/5dd5dd-5dd5dd.out
 38 44 0 0 0
SMALL
GASTEIGER

@<TRIPOS>ATOM
      1 C          -2.0792   -1.7080   -0.0002 C.ar    1  LIG1       -0.0060
      2 C          -0.7020   -1.7080   -0.0002 C.ar    1  LIG1        0.0645
      3 C          -0.1766   -0.3757   -0.0002 C.ar    1  LIG1        0.0128
      4 C          -1.1831    0.5643    0.0006 C.ar    1  LIG1        0.0327
      5 S          -2.6937   -0.1528    0.0006 S.2     1  LIG1       -0.0945
      6 H          -2.8374   -2.7640   -0.0008 H       1  LIG1        0.0706
      7 N           0.7138   -3.7033   -0.0006 N.1     1  LIG1       -0.1908
      8 C           0.0503   -2.7682   -0.0004 C.1     1  LIG1        0.1000
      9 N           2.2200    0.1162   -0.0015 N.3     1  LIG1       -0.1262
     10 C           1.0969   -0.1143   -0.0009 C.3     1  LIG1        0.1368
     11 C          -1.0166    1.8536    0.0014 C.ar    1  LIG1        0.0324
     12 C           0.1958    2.5069    0.0015 C.ar    1  LIG1        0.0012
     13 C           0.0263    3.9290    0.0017 C.ar    1  LIG1        0.0012
     14 C          -1.3057    4.2790    0.0026 C.ar    1  LIG1        0.0324
     15 S          -2.2953    2.9311    0.0023 S.2     1  LIG1       -0.0865
     16 N           2.3887    1.4221    0.0010 N.3     1  LIG1       -0.1262
     17 C           1.3610    1.9305    0.0013 C.3     1  LIG1        0.1359
     18 N           1.9027    5.4990    0.0007 N.3     1  LIG1       -0.1262
     19 C           1.0233    4.7632    0.0012 C.3     1  LIG1        0.1359
     20 C          -1.7708    5.4930    0.0035 C.ar    1  LIG1        0.0324
     21 C          -1.0134    6.6433    0.0038 C.ar    1  LIG1        0.0012
     22 C          -1.8373    7.8147    0.0042 C.ar    1  LIG1        0.0012
     23 C          -3.1759    7.4910    0.0050 C.ar    1  LIG1        0.0324
     24 S          -3.4076    5.8350    0.0046 S.2     1  LIG1       -0.0865
     25 N           1.4317    6.7286    0.0032 N.3     1  LIG1       -0.1262
     26 C           0.2858    6.6886    0.0035 C.3     1  LIG1        0.1359
     27 N          -0.9302   10.0870    0.0034 N.3     1  LIG1       -0.1262
     28 C          -1.3553    9.0221    0.0038 C.3     1  LIG1        0.1359
     29 C          -4.1612    8.3391    0.0062 C.ar    1  LIG1        0.0327
     30 C          -4.0402    9.7108    0.0254 C.ar    1  LIG1        0.0128
     31 C          -5.3212   10.3513    0.0201 C.ar    1  LIG1        0.0645
     32 C          -6.3459    9.4314   -0.0022 C.ar    1  LIG1       -0.0060
     33 S          -5.7642    7.8638   -0.0165 S.2     1  LIG1       -0.0945
     34 H          -7.6155    9.7107   -0.0114 H       1  LIG1        0.0706
     35 N          -1.9284   10.9456    0.0639 N.3     1  LIG1       -0.1262
     36 C          -2.9181   10.3669    0.0458 C.3     1  LIG1        0.1368
     37 N          -5.6007   12.7817    0.0476 N.1     1  LIG1       -0.1908
     38 C          -5.4697   11.6427    0.0347 C.1     1  LIG1        0.1000
@<TRIPOS>BOND
     1    33    32   ar
     2    33    29   ar
     3    34    32    1
     4    32    31   ar
     5     9    10    1
     6     9    16    1
     7    10     3    1
     8     6     1    1
     9     7     8    3
    10     8     2    1
    11     2     3   ar
    12     2     1   ar
    13     3     4   ar
    14     1     5   ar
    15     4     5   ar
    16     4    11    1
    17    18    19    1
    18    18    25    1
    19    16    17    1
    20    19    13    1
    21    17    12    1
    22    11    12   ar
    23    11    15   ar
    24    12    13   ar
    25    13    14   ar
    26    15    14   ar
    27    14    20    1
    28    25    26    1
    29    27    28    1
    30    27    35    1
    31    26    21    1
    32    20    21   ar
    33    20    24   ar
    34    28    22    1
    35    21    22   ar
    36    22    23   ar
    37    24    23   ar
    38    23    29    1
    39    29    30   ar
    40    31    30   ar
    41    31    38    1
    42    30    36    1
    43    38    37    3
    44    36    35    1
