@<TRIPOS>MOLECULE
mol_data/noopt/geoms/mol2/5de5de-.out
 22 24 0 0 0
SMALL
GASTEIGER

@<TRIPOS>ATOM
      1 C          -2.0792   -1.7080   -0.0002 C.ar    1  LIG1       -0.0051
      2 C          -0.7020   -1.7080   -0.0002 C.ar    1  LIG1        0.0742
      3 C          -0.1766   -0.3757   -0.0002 C.ar    1  LIG1        0.0509
      4 C          -1.1831    0.5643    0.0006 C.ar    1  LIG1        0.0423
      5 S          -2.6937   -0.1528    0.0006 S.2     1  LIG1       -0.0936
      6 H          -2.8374   -2.7640   -0.0008 H       1  LIG1        0.0707
      7 N           0.7138   -3.7033   -0.0006 N.1     1  LIG1       -0.1908
      8 C           0.0503   -2.7682   -0.0004 C.1     1  LIG1        0.1009
      9 C           1.0969   -0.1143   -0.0009 C.1     1  LIG1       -0.0929
     10 C           2.2735    0.1272   -0.0015 C.2     1  LIG1        0.0551
     11 H           3.3217    0.3424   -0.0021 H       1  LIG1        0.0888
     12 C          -1.0166    1.8536    0.0014 C.ar    1  LIG1        0.0337
     13 C           0.1958    2.5069    0.0015 C.ar    1  LIG1        0.0134
     14 C           0.0263    3.9290    0.0017 C.ar    1  LIG1        0.0377
     15 C          -1.3057    4.2790    0.0026 C.ar    1  LIG1       -0.0080
     16 S          -2.2953    2.9311    0.0023 S.2     1  LIG1       -0.0945
     17 H          -1.7708    5.4930    0.0035 H       1  LIG1        0.0706
     18 N           2.3887    1.4221    0.0010 N.pl3   1  LIG1       -0.2335
     19 C           1.3610    1.9305    0.0013 C.3     1  LIG1        0.1396
     20 C           1.0233    4.7632    0.0012 C.1     1  LIG1       -0.0688
     21 C           1.9446    5.5340    0.0007 C.1     1  LIG1       -0.1139
     22 H           2.7652    6.2207    0.0002 H       1  LIG1        0.1232
@<TRIPOS>BOND
     1    11    10    1
     2    10     9    2
     3    10    18    1
     4     9     3    2
     5     6     1    1
     6     7     8    3
     7     8     2    1
     8     2     3   ar
     9     2     1   ar
    10     3     4   ar
    11     1     5   ar
    12    22    21    1
    13     5     4   ar
    14     4    12    1
    15    21    20    3
    16    18    19    1
    17    20    14    1
    18    19    13    1
    19    12    13   ar
    20    12    16   ar
    21    13    14   ar
    22    14    15   ar
    23    16    15   ar
    24    15    17    1
