@<TRIPOS>MOLECULE
mol_data/noopt/geoms/mol2/5de5de5de5de.out
 42 48 0 0 0
SMALL
GASTEIGER

@<TRIPOS>ATOM
      1 C          -2.0792   -1.7080   -0.0002 C.ar    1  LIG1       -0.0051
      2 C          -0.7020   -1.7080   -0.0002 C.ar    1  LIG1        0.0742
      3 C          -0.1766   -0.3757   -0.0002 C.ar    1  LIG1        0.0509
      4 C          -1.1831    0.5643    0.0006 C.ar    1  LIG1        0.0423
      5 S          -2.6937   -0.1528    0.0006 S.2     1  LIG1       -0.0936
      6 H          -2.8374   -2.7640   -0.0008 H       1  LIG1        0.0707
      7 N           0.7138   -3.7033   -0.0006 N.1     1  LIG1       -0.1908
      8 C           0.0503   -2.7682   -0.0004 C.1     1  LIG1        0.1009
      9 C           1.0969   -0.1143   -0.0009 C.1     1  LIG1       -0.0929
     10 C           2.2735    0.1272   -0.0015 C.2     1  LIG1        0.0551
     11 H           3.3217    0.3424   -0.0021 H       1  LIG1        0.0888
     12 C          -1.0166    1.8536    0.0014 C.ar    1  LIG1        0.0343
     13 C           0.1956    2.5069    0.0205 C.ar    1  LIG1        0.0134
     14 C           0.0262    3.9290    0.0147 C.ar    1  LIG1        0.0396
     15 C          -1.3056    4.2790   -0.0075 C.ar    1  LIG1        0.0420
     16 S          -2.2951    2.9311   -0.0215 S.2     1  LIG1       -0.0856
     17 N           2.3882    1.4221    0.0591 N.pl3   1  LIG1       -0.2335
     18 C           1.3607    1.9305    0.0410 C.3     1  LIG1        0.1396
     19 C           1.0231    4.7632    0.0291 C.1     1  LIG1       -0.0938
     20 C           1.9443    5.5341    0.0424 C.2     1  LIG1        0.0551
     21 H           2.7648    6.2207    0.0542 H       1  LIG1        0.0888
     22 C          -1.7706    5.4930   -0.0170 C.ar    1  LIG1        0.0343
     23 C          -1.0132    6.6432   -0.0232 C.ar    1  LIG1        0.0134
     24 C          -1.8369    7.8147   -0.0340 C.ar    1  LIG1        0.0396
     25 C          -3.1756    7.4910   -0.0345 C.ar    1  LIG1        0.0420
     26 S          -3.4074    5.8350   -0.0232 S.2     1  LIG1       -0.0856
     27 N           1.4319    6.7284   -0.0174 N.pl3   1  LIG1       -0.2335
     28 C           0.2860    6.6885   -0.0202 C.3     1  LIG1        0.1396
     29 C          -1.3549    9.0220   -0.0421 C.1     1  LIG1       -0.0938
     30 C          -0.9095   10.1375   -0.0495 C.2     1  LIG1        0.0551
     31 H          -0.5127   11.1312   -0.0562 H       1  LIG1        0.0888
     32 C          -4.1608    8.3391   -0.0426 C.ar    1  LIG1        0.0337
     33 C          -4.0399    9.7109   -0.0290 C.ar    1  LIG1        0.0134
     34 C          -5.3207   10.3514   -0.0442 C.ar    1  LIG1        0.0377
     35 C          -6.3454    9.4315   -0.0677 C.ar    1  LIG1       -0.0080
     36 S          -5.7637    7.8638   -0.0716 S.2     1  LIG1       -0.0945
     37 H          -7.6149    9.7107   -0.0849 H       1  LIG1        0.0706
     38 N          -1.9282   10.9458    0.0151 N.pl3   1  LIG1       -0.2335
     39 C          -2.9179   10.3671   -0.0056 C.3     1  LIG1        0.1396
     40 C          -5.4693   11.6429   -0.0363 C.1     1  LIG1       -0.0688
     41 C          -5.6065   12.8362   -0.0290 C.1     1  LIG1       -0.1139
     42 H          -5.7288   13.8992   -0.0226 H       1  LIG1        0.1232
@<TRIPOS>BOND
     1    37    35    1
     2    36    35   ar
     3    36    32   ar
     4    35    34   ar
     5    31    30    1
     6    30    29    2
     7    30    38    1
     8    34    40    1
     9    34    33   ar
    10    32    25    1
    11    32    33   ar
    12    29    24    2
    13    40    41    3
    14    25    24   ar
    15    25    26   ar
    16    24    23   ar
    17    41    42    1
    18    33    39    1
    19    23    28    1
    20    23    22   ar
    21    26    22   ar
    22    16    15   ar
    23    16    12   ar
    24    28    27    1
    25    27    20    1
    26    22    15    1
    27    15    14   ar
    28    39    38    1
    29    11    10    1
    30    10     9    2
    31    10    17    1
    32     9     3    2
    33     6     1    1
    34     7     8    3
    35     8     2    1
    36     2     3   ar
    37     2     1   ar
    38     3     4   ar
    39     1     5   ar
    40     5     4   ar
    41     4    12    1
    42    12    13   ar
    43    14    13   ar
    44    14    19    2
    45    13    18    1
    46    19    20    2
    47    18    17    1
    48    20    21    1
