@<TRIPOS>MOLECULE
mol_data/noopt/geoms/mol2/5de5de5de-5de.out
 42 48 0 0 0
SMALL
GASTEIGER

@<TRIPOS>ATOM
      1 C          -2.0792   -1.7080   -0.0002 C.ar    1  LIG1       -0.0051
      2 C          -0.7020   -1.7080   -0.0002 C.ar    1  LIG1        0.0742
      3 C          -0.1766   -0.3757   -0.0002 C.ar    1  LIG1        0.0509
      4 C          -1.1831    0.5643    0.0006 C.ar    1  LIG1        0.0423
      5 S          -2.6937   -0.1528    0.0006 S.2     1  LIG1       -0.0936
      6 H          -2.8374   -2.7640   -0.0008 H       1  LIG1        0.0707
      7 N           0.7138   -3.7033   -0.0006 N.1     1  LIG1       -0.1908
      8 C           0.0503   -2.7682   -0.0004 C.1     1  LIG1        0.1009
      9 C           1.0969   -0.1143   -0.0009 C.1     1  LIG1       -0.0929
     10 C           2.2735    0.1272   -0.0015 C.2     1  LIG1        0.0551
     11 H           3.3217    0.3424   -0.0021 H       1  LIG1        0.0888
     12 C          -1.0166    1.8536    0.0014 C.ar    1  LIG1        0.0343
     13 C           0.1956    2.5069    0.0205 C.ar    1  LIG1        0.0134
     14 C           0.0262    3.9290    0.0147 C.ar    1  LIG1        0.0396
     15 C          -1.3056    4.2790   -0.0075 C.ar    1  LIG1        0.0420
     16 S          -2.2951    2.9311   -0.0215 S.2     1  LIG1       -0.0856
     17 N           2.3882    1.4221    0.0591 N.pl3   1  LIG1       -0.2335
     18 C           1.3607    1.9305    0.0410 C.3     1  LIG1        0.1396
     19 C           1.0231    4.7632    0.0291 C.1     1  LIG1       -0.0938
     20 C           1.9443    5.5341    0.0424 C.2     1  LIG1        0.0551
     21 H           2.7648    6.2207    0.0542 H       1  LIG1        0.0888
     22 C          -1.7706    5.4930   -0.0170 C.ar    1  LIG1        0.0343
     23 C          -1.0134    6.6433   -0.0043 C.ar    1  LIG1        0.0134
     24 C          -1.8371    7.8147   -0.0210 C.ar    1  LIG1        0.0396
     25 C          -3.1754    7.4910   -0.0446 C.ar    1  LIG1        0.0420
     26 S          -3.4072    5.8350   -0.0470 S.2     1  LIG1       -0.0856
     27 N           1.4313    6.7286    0.0406 N.pl3   1  LIG1       -0.2335
     28 C           0.2856    6.6886    0.0196 C.3     1  LIG1        0.1396
     29 C          -1.3552    9.0221   -0.0141 C.1     1  LIG1       -0.0938
     30 C          -0.9099   10.1377   -0.0078 C.2     1  LIG1        0.0551
     31 H          -0.5132   11.1314   -0.0022 H       1  LIG1        0.0888
     32 C          -4.1606    8.3390   -0.0631 C.ar    1  LIG1        0.0337
     33 C          -4.0397    9.7109   -0.0560 C.ar    1  LIG1        0.0134
     34 C          -5.3204   10.3513   -0.0823 C.ar    1  LIG1        0.0377
     35 C          -6.3449    9.4313   -0.1072 C.ar    1  LIG1       -0.0080
     36 S          -5.7633    7.8636   -0.0994 S.2     1  LIG1       -0.0945
     37 H          -7.6143    9.7105   -0.1337 H       1  LIG1        0.0706
     38 N          -1.9283   10.9459   -0.0055 N.pl3   1  LIG1       -0.2335
     39 C          -2.9178   10.3671   -0.0292 C.3     1  LIG1        0.1396
     40 C          -5.4689   11.6428   -0.0821 C.1     1  LIG1       -0.0688
     41 C          -5.6062   12.8362   -0.0819 C.1     1  LIG1       -0.1139
     42 H          -5.7284   13.8991   -0.0818 H       1  LIG1        0.1232
@<TRIPOS>BOND
     1    37    35    1
     2    35    36   ar
     3    35    34   ar
     4    36    32   ar
     5    34    40    1
     6    34    33   ar
     7    40    41    3
     8    41    42    1
     9    32    33   ar
    10    32    25    1
    11    33    39    1
    12    26    25   ar
    13    26    22   ar
    14    25    24   ar
    15    39    38    1
    16    16    15   ar
    17    16    12   ar
    18    24    29    2
    19    24    23   ar
    20    22    15    1
    21    22    23   ar
    22    29    30    2
    23    30    38    1
    24    30    31    1
    25    15    14   ar
    26    23    28    1
    27    11    10    1
    28    10     9    2
    29    10    17    1
    30     9     3    2
    31     6     1    1
    32     7     8    3
    33     8     2    1
    34     2     3   ar
    35     2     1   ar
    36     3     4   ar
    37     1     5   ar
    38     5     4   ar
    39     4    12    1
    40    12    13   ar
    41    14    13   ar
    42    14    19    2
    43    28    27    1
    44    13    18    1
    45    19    20    2
    46    27    20    1
    47    18    17    1
    48    20    21    1
