@<TRIPOS>MOLECULE
mol_data/noopt/geoms/mol2/5de5de5de-.out
 32 36 0 0 0
SMALL
GASTEIGER

@<TRIPOS>ATOM
      1 C          -2.0792   -1.7080   -0.0002 C.ar    1  LIG1       -0.0051
      2 C          -0.7020   -1.7080   -0.0002 C.ar    1  LIG1        0.0742
      3 C          -0.1766   -0.3757   -0.0002 C.ar    1  LIG1        0.0509
      4 C          -1.1831    0.5643    0.0006 C.ar    1  LIG1        0.0423
      5 S          -2.6937   -0.1528    0.0006 S.2     1  LIG1       -0.0936
      6 H          -2.8374   -2.7640   -0.0008 H       1  LIG1        0.0707
      7 N           0.7138   -3.7033   -0.0006 N.1     1  LIG1       -0.1908
      8 C           0.0503   -2.7682   -0.0004 C.1     1  LIG1        0.1009
      9 C           1.0969   -0.1143   -0.0009 C.1     1  LIG1       -0.0929
     10 C           2.2735    0.1272   -0.0015 C.2     1  LIG1        0.0551
     11 H           3.3217    0.3424   -0.0021 H       1  LIG1        0.0888
     12 C          -1.0166    1.8536    0.0014 C.ar    1  LIG1        0.0343
     13 C           0.1956    2.5069    0.0205 C.ar    1  LIG1        0.0134
     14 C           0.0262    3.9290    0.0147 C.ar    1  LIG1        0.0396
     15 C          -1.3056    4.2790   -0.0075 C.ar    1  LIG1        0.0420
     16 S          -2.2951    2.9311   -0.0215 S.2     1  LIG1       -0.0856
     17 N           2.3882    1.4221    0.0591 N.pl3   1  LIG1       -0.2335
     18 C           1.3607    1.9305    0.0410 C.3     1  LIG1        0.1396
     19 C           1.0231    4.7632    0.0291 C.1     1  LIG1       -0.0938
     20 C           1.9443    5.5341    0.0424 C.2     1  LIG1        0.0551
     21 H           2.7648    6.2207    0.0542 H       1  LIG1        0.0888
     22 C          -1.7706    5.4930   -0.0170 C.ar    1  LIG1        0.0337
     23 C          -1.0134    6.6433   -0.0043 C.ar    1  LIG1        0.0134
     24 C          -1.8371    7.8147   -0.0210 C.ar    1  LIG1        0.0377
     25 C          -3.1754    7.4910   -0.0446 C.ar    1  LIG1       -0.0080
     26 S          -3.4072    5.8350   -0.0470 S.2     1  LIG1       -0.0945
     27 H          -4.1606    8.3390   -0.0631 H       1  LIG1        0.0706
     28 N           1.4313    6.7286    0.0406 N.pl3   1  LIG1       -0.2335
     29 C           0.2856    6.6886    0.0196 C.3     1  LIG1        0.1396
     30 C          -1.3552    9.0221   -0.0141 C.1     1  LIG1       -0.0688
     31 C          -0.9099   10.1377   -0.0078 C.1     1  LIG1       -0.1139
     32 H          -0.5132   11.1314   -0.0022 H       1  LIG1        0.1232
@<TRIPOS>BOND
     1    27    25    1
     2    26    25   ar
     3    26    22   ar
     4    25    24   ar
     5    16    15   ar
     6    16    12   ar
     7    24    30    1
     8    24    23   ar
     9    22    15    1
    10    22    23   ar
    11    30    31    3
    12    31    32    1
    13    15    14   ar
    14    23    29    1
    15    11    10    1
    16    10     9    2
    17    10    17    1
    18     9     3    2
    19     6     1    1
    20     7     8    3
    21     8     2    1
    22     1     2   ar
    23     1     5   ar
    24     3     2   ar
    25     3     4   ar
    26     5     4   ar
    27     4    12    1
    28    12    13   ar
    29    14    13   ar
    30    14    19    2
    31    29    28    1
    32    13    18    1
    33    19    20    2
    34    28    20    1
    35    18    17    1
    36    20    21    1
