@<TRIPOS>MOLECULE
mol_data/noopt/geoms/mol2/5de5de5de.out
 32 36 0 0 0
SMALL
GASTEIGER

@<TRIPOS>ATOM
      1 C          -2.0792   -1.7080   -0.0002 C.ar    1  LIG1       -0.0051
      2 C          -0.7020   -1.7080   -0.0002 C.ar    1  LIG1        0.0742
      3 C          -0.1766   -0.3757   -0.0002 C.ar    1  LIG1        0.0509
      4 C          -1.1831    0.5643    0.0006 C.ar    1  LIG1        0.0423
      5 S          -2.6937   -0.1528    0.0006 S.2     1  LIG1       -0.0936
      6 H          -2.8374   -2.7640   -0.0008 H       1  LIG1        0.0707
      7 N           0.7138   -3.7033   -0.0006 N.1     1  LIG1       -0.1908
      8 C           0.0503   -2.7682   -0.0004 C.1     1  LIG1        0.1009
      9 C           1.0969   -0.1143   -0.0009 C.1     1  LIG1       -0.0929
     10 C           2.2735    0.1272   -0.0015 C.2     1  LIG1        0.0551
     11 H           3.3217    0.3424   -0.0021 H       1  LIG1        0.0888
     12 C          -1.0166    1.8536    0.0014 C.ar    1  LIG1        0.0343
     13 C           0.1956    2.5069    0.0205 C.ar    1  LIG1        0.0134
     14 C           0.0262    3.9290    0.0147 C.ar    1  LIG1        0.0396
     15 C          -1.3056    4.2790   -0.0075 C.ar    1  LIG1        0.0420
     16 S          -2.2951    2.9311   -0.0215 S.2     1  LIG1       -0.0856
     17 N           2.3882    1.4221    0.0591 N.pl3   1  LIG1       -0.2335
     18 C           1.3607    1.9305    0.0410 C.3     1  LIG1        0.1396
     19 C           1.0231    4.7632    0.0291 C.1     1  LIG1       -0.0938
     20 C           1.9443    5.5341    0.0424 C.2     1  LIG1        0.0551
     21 H           2.7648    6.2207    0.0542 H       1  LIG1        0.0888
     22 C          -1.7706    5.4930   -0.0170 C.ar    1  LIG1        0.0337
     23 C          -1.0132    6.6432   -0.0232 C.ar    1  LIG1        0.0134
     24 C          -1.8369    7.8147   -0.0340 C.ar    1  LIG1        0.0377
     25 C          -3.1756    7.4910   -0.0345 C.ar    1  LIG1       -0.0080
     26 S          -3.4074    5.8350   -0.0232 S.2     1  LIG1       -0.0945
     27 H          -4.1608    8.3391   -0.0426 H       1  LIG1        0.0706
     28 N           1.4319    6.7284   -0.0174 N.pl3   1  LIG1       -0.2335
     29 C           0.2860    6.6885   -0.0202 C.3     1  LIG1        0.1396
     30 C          -1.3549    9.0220   -0.0421 C.1     1  LIG1       -0.0688
     31 C          -0.9095   10.1375   -0.0495 C.1     1  LIG1       -0.1139
     32 H          -0.5127   11.1312   -0.0562 H       1  LIG1        0.1232
@<TRIPOS>BOND
     1    32    31    1
     2    31    30    3
     3    27    25    1
     4    30    24    1
     5    25    24   ar
     6    25    26   ar
     7    24    23   ar
     8    23    29    1
     9    23    22   ar
    10    26    22   ar
    11    16    15   ar
    12    16    12   ar
    13    29    28    1
    14    28    20    1
    15    22    15    1
    16    15    14   ar
    17    11    10    1
    18    10     9    2
    19    10    17    1
    20     9     3    2
    21     6     1    1
    22     7     8    3
    23     8     2    1
    24     1     2   ar
    25     1     5   ar
    26     3     2   ar
    27     3     4   ar
    28     5     4   ar
    29     4    12    1
    30    12    13   ar
    31    14    13   ar
    32    14    19    2
    33    13    18    1
    34    19    20    2
    35    18    17    1
    36    20    21    1
