@<TRIPOS>MOLECULE
mol_data/noopt/geoms/mol2/5de5de-5de-5de-.out
 42 48 0 0 0
SMALL
GASTEIGER

@<TRIPOS>ATOM
      1 C          -2.0792   -1.7080   -0.0002 C.ar    1  LIG1       -0.0051
      2 C          -0.7020   -1.7080   -0.0002 C.ar    1  LIG1        0.0742
      3 C          -0.1766   -0.3757   -0.0002 C.ar    1  LIG1        0.0509
      4 C          -1.1831    0.5643    0.0006 C.ar    1  LIG1        0.0423
      5 S          -2.6937   -0.1528    0.0006 S.2     1  LIG1       -0.0936
      6 H          -2.8374   -2.7640   -0.0008 H       1  LIG1        0.0707
      7 N           0.7138   -3.7033   -0.0006 N.1     1  LIG1       -0.1908
      8 C           0.0503   -2.7682   -0.0004 C.1     1  LIG1        0.1009
      9 C           1.0969   -0.1143   -0.0009 C.1     1  LIG1       -0.0929
     10 C           2.2735    0.1272   -0.0015 C.2     1  LIG1        0.0551
     11 H           3.3217    0.3424   -0.0021 H       1  LIG1        0.0888
     12 C          -1.0166    1.8536    0.0014 C.ar    1  LIG1        0.0343
     13 C           0.1958    2.5069    0.0015 C.ar    1  LIG1        0.0134
     14 C           0.0263    3.9290    0.0017 C.ar    1  LIG1        0.0396
     15 C          -1.3057    4.2790    0.0026 C.ar    1  LIG1        0.0420
     16 S          -2.2953    2.9311    0.0023 S.2     1  LIG1       -0.0856
     17 N           2.3887    1.4221    0.0010 N.pl3   1  LIG1       -0.2335
     18 C           1.3610    1.9305    0.0013 C.3     1  LIG1        0.1396
     19 C           1.0233    4.7632    0.0012 C.1     1  LIG1       -0.0938
     20 C           1.9446    5.5340    0.0007 C.2     1  LIG1        0.0551
     21 H           2.7652    6.2207    0.0002 H       1  LIG1        0.0888
     22 C          -1.7708    5.4930    0.0035 C.ar    1  LIG1        0.0343
     23 C          -1.0136    6.6432    0.0227 C.ar    1  LIG1        0.0134
     24 C          -1.8374    7.8147    0.0172 C.ar    1  LIG1        0.0396
     25 C          -3.1758    7.4910   -0.0051 C.ar    1  LIG1        0.0420
     26 S          -3.4074    5.8351   -0.0192 S.2     1  LIG1       -0.0856
     27 N           1.4312    6.7284    0.0613 N.pl3   1  LIG1       -0.2335
     28 C           0.2855    6.6885    0.0432 C.3     1  LIG1        0.1396
     29 C          -1.3555    9.0220    0.0317 C.1     1  LIG1       -0.0938
     30 C          -0.9102   10.1376    0.0451 C.2     1  LIG1        0.0551
     31 H          -0.5136   11.1313    0.0570 H       1  LIG1        0.0888
     32 C          -4.1610    8.3391   -0.0144 C.ar    1  LIG1        0.0337
     33 C          -4.0399    9.7110   -0.0205 C.ar    1  LIG1        0.0134
     34 C          -5.3208   10.3515   -0.0311 C.ar    1  LIG1        0.0377
     35 C          -6.3457    9.4315   -0.0316 C.ar    1  LIG1       -0.0080
     36 S          -5.7642    7.8638   -0.0205 S.2     1  LIG1       -0.0945
     37 H          -7.6153    9.7107   -0.0396 H       1  LIG1        0.0706
     38 N          -1.9278   10.9459   -0.0148 N.pl3   1  LIG1       -0.2335
     39 C          -2.9176   10.3672   -0.0175 C.3     1  LIG1        0.1396
     40 C          -5.4692   11.6430   -0.0391 C.1     1  LIG1       -0.0688
     41 C          -5.6063   12.8363   -0.0464 C.1     1  LIG1       -0.1139
     42 H          -5.7284   13.8993   -0.0530 H       1  LIG1        0.1232
@<TRIPOS>BOND
     1    42    41    1
     2    41    40    3
     3    37    35    1
     4    40    34    1
     5    35    34   ar
     6    35    36   ar
     7    34    33   ar
     8    33    39    1
     9    33    32   ar
    10    36    32   ar
    11    26    25   ar
    12    26    22   ar
    13    39    38    1
    14    38    30    1
    15    32    25    1
    16    25    24   ar
    17    11    10    1
    18    10     9    2
    19    10    17    1
    20     9     3    2
    21     6     1    1
    22     7     8    3
    23     8     2    1
    24     1     2   ar
    25     1     5   ar
    26     2     3   ar
    27     3     4   ar
    28    21    20    1
    29     4     5   ar
    30     4    12    1
    31    20    19    2
    32    20    27    1
    33    17    18    1
    34    19    14    2
    35    18    13    1
    36    12    13   ar
    37    12    16   ar
    38    13    14   ar
    39    14    15   ar
    40    16    15   ar
    41    15    22    1
    42    22    23   ar
    43    24    23   ar
    44    24    29    2
    45    23    28    1
    46    29    30    2
    47    28    27    1
    48    30    31    1
