@<TRIPOS>MOLECULE
mol_data/noopt/geoms/mol2/5df5df-5df-5df.out
 38 41 0 0 0
SMALL
GASTEIGER

@<TRIPOS>ATOM
      1 C          -2.0792   -1.7080   -0.0002 C.ar    1  LIG1       -0.0027
      2 C          -0.7020   -1.7080   -0.0002 C.ar    1  LIG1        0.1007
      3 C          -0.1766   -0.3757   -0.0002 C.ar    1  LIG1        0.1494
      4 C          -1.1831    0.5643    0.0006 C.ar    1  LIG1        0.0699
      5 S          -2.6937   -0.1528    0.0006 S.2     1  LIG1       -0.0910
      6 H          -2.8374   -2.7640   -0.0008 H       1  LIG1        0.0708
      7 N           0.7138   -3.7033   -0.0006 N.1     1  LIG1       -0.1907
      8 C           0.0503   -2.7682   -0.0004 C.1     1  LIG1        0.1034
      9 O           1.0969   -0.1143   -0.0009 O.3     1  LIG1       -0.5043
     10 H           1.2288    0.8366   -0.0011 H       1  LIG1        0.2922
     11 C          -1.0166    1.8536    0.0014 C.ar    1  LIG1        0.0511
     12 C           0.1958    2.5069    0.0015 C.ar    1  LIG1        0.1090
     13 C           0.0263    3.9290    0.0017 C.ar    1  LIG1        0.1501
     14 C          -1.3057    4.2790    0.0026 C.ar    1  LIG1        0.0705
     15 S          -2.2953    2.9311    0.0023 S.2     1  LIG1       -0.0820
     16 N           2.3887    1.4221    0.0010 N.1     1  LIG1       -0.1907
     17 C           1.3610    1.9305    0.0013 C.1     1  LIG1        0.1040
     18 O           1.0233    4.7633    0.0012 O.3     1  LIG1       -0.5043
     19 H           0.6884    5.6629    0.0010 H       1  LIG1        0.2922
     20 C          -1.7708    5.4930    0.0035 C.ar    1  LIG1        0.0511
     21 C          -1.0136    6.6432    0.0227 C.ar    1  LIG1        0.1090
     22 C          -1.8374    7.8147    0.0172 C.ar    1  LIG1        0.1501
     23 C          -3.1758    7.4910   -0.0051 C.ar    1  LIG1        0.0705
     24 S          -3.4074    5.8351   -0.0192 S.2     1  LIG1       -0.0820
     25 N           1.4312    6.7284    0.0613 N.1     1  LIG1       -0.1907
     26 C           0.2855    6.6885    0.0432 C.1     1  LIG1        0.1040
     27 O          -1.3555    9.0221    0.0317 O.3     1  LIG1       -0.5043
     28 H          -2.0772    9.6551    0.0353 H       1  LIG1        0.2922
     29 C          -4.1610    8.3391   -0.0144 C.ar    1  LIG1        0.0505
     30 C          -4.0401    9.7110   -0.0016 C.ar    1  LIG1        0.1084
     31 C          -5.3209   10.3515   -0.0181 C.ar    1  LIG1        0.1418
     32 C          -6.3455    9.4316   -0.0417 C.ar    1  LIG1        0.0191
     33 S          -5.7639    7.8638   -0.0443 S.2     1  LIG1       -0.0910
     34 H          -7.6151    9.7108   -0.0601 H       1  LIG1        0.0731
     35 N          -1.9285   10.9458    0.0433 N.1     1  LIG1       -0.1907
     36 C          -2.9181   10.3671    0.0222 C.1     1  LIG1        0.1040
     37 O          -5.4695   11.6430   -0.0111 O.3     1  LIG1       -0.5049
     38 H          -6.4051   11.8579   -0.0094 H       1  LIG1        0.2922
@<TRIPOS>BOND
     1    34    32    1
     2    33    32   ar
     3    33    29   ar
     4    32    31   ar
     5    24    23   ar
     6    24    20   ar
     7    31    37    1
     8    31    30   ar
     9    29    23    1
    10    29    30   ar
    11    37    38    1
    12    23    22   ar
    13    30    36    1
    14    10     9    1
    15     9     3    1
    16     6     1    1
    17     7     8    3
    18     8     2    1
    19     1     2   ar
    20     1     5   ar
    21     2     3   ar
    22     3     4   ar
    23     4     5   ar
    24     4    11    1
    25    16    17    3
    26    19    18    1
    27    18    13    1
    28    17    12    1
    29    11    12   ar
    30    11    15   ar
    31    12    13   ar
    32    13    14   ar
    33    15    14   ar
    34    14    20    1
    35    20    21   ar
    36    22    21   ar
    37    22    27    1
    38    36    35    3
    39    21    26    1
    40    27    28    1
    41    26    25    3
