@<TRIPOS>MOLECULE
mol_data/noopt/geoms/mol2/5df5df.out
 20 21 0 0 0
SMALL
GASTEIGER

@<TRIPOS>ATOM
      1 C          -2.0792   -1.7080   -0.0002 C.ar    1  LIG1       -0.0027
      2 C          -0.7020   -1.7080   -0.0002 C.ar    1  LIG1        0.1007
      3 C          -0.1766   -0.3757   -0.0002 C.ar    1  LIG1        0.1494
      4 C          -1.1831    0.5643    0.0006 C.ar    1  LIG1        0.0699
      5 S          -2.6937   -0.1528    0.0006 S.2     1  LIG1       -0.0911
      6 H          -2.8374   -2.7640   -0.0008 H       1  LIG1        0.0708
      7 N           0.7138   -3.7033   -0.0006 N.1     1  LIG1       -0.1907
      8 C           0.0503   -2.7682   -0.0004 C.1     1  LIG1        0.1034
      9 O           1.0969   -0.1143   -0.0009 O.3     1  LIG1       -0.5043
     10 H           1.2288    0.8366   -0.0011 H       1  LIG1        0.2922
     11 C          -1.0166    1.8536    0.0014 C.ar    1  LIG1        0.0504
     12 C           0.1956    2.5069    0.0205 C.ar    1  LIG1        0.1084
     13 C           0.0262    3.9290    0.0147 C.ar    1  LIG1        0.1418
     14 C          -1.3056    4.2790   -0.0075 C.ar    1  LIG1        0.0191
     15 S          -2.2951    2.9311   -0.0215 S.2     1  LIG1       -0.0910
     16 H          -1.7706    5.4930   -0.0170 H       1  LIG1        0.0731
     17 N           2.3882    1.4221    0.0591 N.1     1  LIG1       -0.1907
     18 C           1.3607    1.9305    0.0410 C.1     1  LIG1        0.1040
     19 O           1.0231    4.7633    0.0291 O.3     1  LIG1       -0.5049
     20 H           0.6881    5.6629    0.0327 H       1  LIG1        0.2922
@<TRIPOS>BOND
     1    15    14   ar
     2    15    11   ar
     3    16    14    1
     4    14    13   ar
     5    10     9    1
     6     9     3    1
     7     6     1    1
     8     7     8    3
     9     8     2    1
    10     2     3   ar
    11     2     1   ar
    12     3     4   ar
    13     1     5   ar
    14     4     5   ar
    15     4    11    1
    16    11    12   ar
    17    13    12   ar
    18    13    19    1
    19    12    18    1
    20    19    20    1
    21    18    17    3
