@<TRIPOS>MOLECULE
mol_data/noopt/geoms/mol2/5df5df5df-5df.out
 38 41 0 0 0
SMALL
GASTEIGER

@<TRIPOS>ATOM
      1 C          -2.0792   -1.7080   -0.0002 C.ar    1  LIG1       -0.0027
      2 C          -0.7020   -1.7080   -0.0002 C.ar    1  LIG1        0.1007
      3 C          -0.1766   -0.3757   -0.0002 C.ar    1  LIG1        0.1494
      4 C          -1.1831    0.5643    0.0006 C.ar    1  LIG1        0.0699
      5 S          -2.6937   -0.1528    0.0006 S.2     1  LIG1       -0.0910
      6 H          -2.8374   -2.7640   -0.0008 H       1  LIG1        0.0708
      7 N           0.7138   -3.7033   -0.0006 N.1     1  LIG1       -0.1907
      8 C           0.0503   -2.7682   -0.0004 C.1     1  LIG1        0.1034
      9 O           1.0969   -0.1143   -0.0009 O.3     1  LIG1       -0.5043
     10 H           1.2288    0.8366   -0.0011 H       1  LIG1        0.2922
     11 C          -1.0166    1.8536    0.0014 C.ar    1  LIG1        0.0511
     12 C           0.1956    2.5069    0.0205 C.ar    1  LIG1        0.1090
     13 C           0.0262    3.9290    0.0147 C.ar    1  LIG1        0.1501
     14 C          -1.3056    4.2790   -0.0075 C.ar    1  LIG1        0.0705
     15 S          -2.2951    2.9311   -0.0215 S.2     1  LIG1       -0.0820
     16 N           2.3882    1.4221    0.0591 N.1     1  LIG1       -0.1907
     17 C           1.3607    1.9305    0.0410 C.1     1  LIG1        0.1040
     18 O           1.0231    4.7633    0.0291 O.3     1  LIG1       -0.5043
     19 H           0.6881    5.6629    0.0327 H       1  LIG1        0.2922
     20 C          -1.7706    5.4930   -0.0170 C.ar    1  LIG1        0.0511
     21 C          -1.0134    6.6433   -0.0043 C.ar    1  LIG1        0.1090
     22 C          -1.8371    7.8147   -0.0210 C.ar    1  LIG1        0.1501
     23 C          -3.1754    7.4910   -0.0446 C.ar    1  LIG1        0.0705
     24 S          -3.4072    5.8350   -0.0470 S.2     1  LIG1       -0.0820
     25 N           1.4313    6.7286    0.0406 N.1     1  LIG1       -0.1907
     26 C           0.2856    6.6886    0.0196 C.1     1  LIG1        0.1040
     27 O          -1.3551    9.0221   -0.0141 O.3     1  LIG1       -0.5043
     28 H          -2.0768    9.6552   -0.0124 H       1  LIG1        0.2922
     29 C          -4.1606    8.3390   -0.0631 C.ar    1  LIG1        0.0505
     30 C          -4.0397    9.7109   -0.0560 C.ar    1  LIG1        0.1084
     31 C          -5.3204   10.3513   -0.0823 C.ar    1  LIG1        0.1418
     32 C          -6.3449    9.4313   -0.1072 C.ar    1  LIG1        0.0191
     33 S          -5.7633    7.8636   -0.0994 S.2     1  LIG1       -0.0910
     34 H          -7.6143    9.7105   -0.1337 H       1  LIG1        0.0731
     35 N          -1.9283   10.9459   -0.0055 N.1     1  LIG1       -0.1907
     36 C          -2.9178   10.3671   -0.0292 C.1     1  LIG1        0.1040
     37 O          -5.4689   11.6429   -0.0821 O.3     1  LIG1       -0.5049
     38 H          -6.4046   11.8578   -0.0821 H       1  LIG1        0.2922
@<TRIPOS>BOND
     1    34    32    1
     2    32    33   ar
     3    32    31   ar
     4    33    29   ar
     5    31    37    1
     6    31    30   ar
     7    37    38    1
     8    29    30   ar
     9    29    23    1
    10    30    36    1
    11    24    23   ar
    12    24    20   ar
    13    23    22   ar
    14    36    35    3
    15    15    14   ar
    16    15    11   ar
    17    22    27    1
    18    22    21   ar
    19    20    14    1
    20    20    21   ar
    21    27    28    1
    22    14    13   ar
    23    21    26    1
    24    10     9    1
    25     9     3    1
    26     6     1    1
    27     7     8    3
    28     8     2    1
    29     2     1   ar
    30     2     3   ar
    31     1     5   ar
    32     3     4   ar
    33     5     4   ar
    34     4    11    1
    35    11    12   ar
    36    13    12   ar
    37    13    18    1
    38    26    25    3
    39    12    17    1
    40    18    19    1
    41    17    16    3
