@<TRIPOS>MOLECULE
mol_data/noopt/geoms/mol2/5df5df-5df5df.out
 38 41 0 0 0
SMALL
GASTEIGER

@<TRIPOS>ATOM
      1 C          -2.0792   -1.7080   -0.0002 C.ar    1  LIG1       -0.0027
      2 C          -0.7020   -1.7080   -0.0002 C.ar    1  LIG1        0.1007
      3 C          -0.1766   -0.3757   -0.0002 C.ar    1  LIG1        0.1494
      4 C          -1.1831    0.5643    0.0006 C.ar    1  LIG1        0.0699
      5 S          -2.6937   -0.1528    0.0006 S.2     1  LIG1       -0.0910
      6 H          -2.8374   -2.7640   -0.0008 H       1  LIG1        0.0708
      7 N           0.7138   -3.7033   -0.0006 N.1     1  LIG1       -0.1907
      8 C           0.0503   -2.7682   -0.0004 C.1     1  LIG1        0.1034
      9 O           1.0969   -0.1143   -0.0009 O.3     1  LIG1       -0.5043
     10 H           1.2288    0.8366   -0.0011 H       1  LIG1        0.2922
     11 C          -1.0166    1.8536    0.0014 C.ar    1  LIG1        0.0511
     12 C           0.1958    2.5069    0.0015 C.ar    1  LIG1        0.1090
     13 C           0.0263    3.9290    0.0017 C.ar    1  LIG1        0.1501
     14 C          -1.3057    4.2790    0.0026 C.ar    1  LIG1        0.0705
     15 S          -2.2953    2.9311    0.0023 S.2     1  LIG1       -0.0820
     16 N           2.3887    1.4221    0.0010 N.1     1  LIG1       -0.1907
     17 C           1.3610    1.9305    0.0013 C.1     1  LIG1        0.1040
     18 O           1.0233    4.7633    0.0012 O.3     1  LIG1       -0.5043
     19 H           0.6884    5.6629    0.0010 H       1  LIG1        0.2922
     20 C          -1.7708    5.4930    0.0035 C.ar    1  LIG1        0.0511
     21 C          -1.0134    6.6433    0.0038 C.ar    1  LIG1        0.1090
     22 C          -1.8373    7.8147    0.0042 C.ar    1  LIG1        0.1501
     23 C          -3.1759    7.4910    0.0050 C.ar    1  LIG1        0.0705
     24 S          -3.4076    5.8350    0.0046 S.2     1  LIG1       -0.0820
     25 N           1.4317    6.7286    0.0032 N.1     1  LIG1       -0.1907
     26 C           0.2858    6.6886    0.0035 C.1     1  LIG1        0.1040
     27 O          -1.3553    9.0221    0.0038 O.3     1  LIG1       -0.5043
     28 H          -2.0770    9.6552    0.0036 H       1  LIG1        0.2922
     29 C          -4.1612    8.3391    0.0062 C.ar    1  LIG1        0.0505
     30 C          -4.0402    9.7108    0.0254 C.ar    1  LIG1        0.1084
     31 C          -5.3212   10.3513    0.0201 C.ar    1  LIG1        0.1418
     32 C          -6.3459    9.4314   -0.0022 C.ar    1  LIG1        0.0191
     33 S          -5.7642    7.8638   -0.0165 S.2     1  LIG1       -0.0910
     34 H          -7.6155    9.7107   -0.0114 H       1  LIG1        0.0731
     35 N          -1.9284   10.9456    0.0639 N.1     1  LIG1       -0.1907
     36 C          -2.9181   10.3669    0.0458 C.1     1  LIG1        0.1040
     37 O          -5.4697   11.6427    0.0347 O.3     1  LIG1       -0.5049
     38 H          -6.4054   11.8576    0.0383 H       1  LIG1        0.2922
@<TRIPOS>BOND
     1    33    32   ar
     2    33    29   ar
     3    34    32    1
     4    32    31   ar
     5    10     9    1
     6     9     3    1
     7     6     1    1
     8     7     8    3
     9     8     2    1
    10     2     3   ar
    11     2     1   ar
    12     3     4   ar
    13     1     5   ar
    14     4     5   ar
    15     4    11    1
    16    16    17    3
    17    19    18    1
    18    18    13    1
    19    17    12    1
    20    11    12   ar
    21    11    15   ar
    22    12    13   ar
    23    13    14   ar
    24    15    14   ar
    25    14    20    1
    26    25    26    3
    27    26    21    1
    28    20    21   ar
    29    20    24   ar
    30    28    27    1
    31    27    22    1
    32    21    22   ar
    33    22    23   ar
    34    24    23   ar
    35    23    29    1
    36    29    30   ar
    37    31    30   ar
    38    31    37    1
    39    30    36    1
    40    37    38    1
    41    36    35    3
