@<TRIPOS>MOLECULE
mol_data/noopt/geoms/mol2/5df5df-5df-5df-.out
 38 41 0 0 0
SMALL
GASTEIGER

@<TRIPOS>ATOM
      1 C          -2.0792   -1.7080   -0.0002 C.ar    1  LIG1       -0.0027
      2 C          -0.7020   -1.7080   -0.0002 C.ar    1  LIG1        0.1007
      3 C          -0.1766   -0.3757   -0.0002 C.ar    1  LIG1        0.1494
      4 C          -1.1831    0.5643    0.0006 C.ar    1  LIG1        0.0699
      5 S          -2.6937   -0.1528    0.0006 S.2     1  LIG1       -0.0910
      6 H          -2.8374   -2.7640   -0.0008 H       1  LIG1        0.0708
      7 N           0.7138   -3.7033   -0.0006 N.1     1  LIG1       -0.1907
      8 C           0.0503   -2.7682   -0.0004 C.1     1  LIG1        0.1034
      9 O           1.0969   -0.1143   -0.0009 O.3     1  LIG1       -0.5043
     10 H           1.2288    0.8366   -0.0011 H       1  LIG1        0.2922
     11 C          -1.0166    1.8536    0.0014 C.ar    1  LIG1        0.0511
     12 C           0.1958    2.5069    0.0015 C.ar    1  LIG1        0.1090
     13 C           0.0263    3.9290    0.0017 C.ar    1  LIG1        0.1501
     14 C          -1.3057    4.2790    0.0026 C.ar    1  LIG1        0.0705
     15 S          -2.2953    2.9311    0.0023 S.2     1  LIG1       -0.0820
     16 N           2.3887    1.4221    0.0010 N.1     1  LIG1       -0.1907
     17 C           1.3610    1.9305    0.0013 C.1     1  LIG1        0.1040
     18 O           1.0233    4.7633    0.0012 O.3     1  LIG1       -0.5043
     19 H           0.6884    5.6629    0.0010 H       1  LIG1        0.2922
     20 C          -1.7708    5.4930    0.0035 C.ar    1  LIG1        0.0511
     21 C          -1.0136    6.6432    0.0227 C.ar    1  LIG1        0.1090
     22 C          -1.8374    7.8147    0.0172 C.ar    1  LIG1        0.1501
     23 C          -3.1758    7.4910   -0.0051 C.ar    1  LIG1        0.0705
     24 S          -3.4074    5.8351   -0.0192 S.2     1  LIG1       -0.0820
     25 N           1.4312    6.7284    0.0613 N.1     1  LIG1       -0.1907
     26 C           0.2855    6.6885    0.0432 C.1     1  LIG1        0.1040
     27 O          -1.3555    9.0221    0.0317 O.3     1  LIG1       -0.5043
     28 H          -2.0772    9.6551    0.0353 H       1  LIG1        0.2922
     29 C          -4.1610    8.3391   -0.0144 C.ar    1  LIG1        0.0505
     30 C          -4.0399    9.7110   -0.0205 C.ar    1  LIG1        0.1084
     31 C          -5.3208   10.3515   -0.0311 C.ar    1  LIG1        0.1418
     32 C          -6.3457    9.4315   -0.0316 C.ar    1  LIG1        0.0191
     33 S          -5.7642    7.8638   -0.0205 S.2     1  LIG1       -0.0910
     34 H          -7.6153    9.7107   -0.0396 H       1  LIG1        0.0731
     35 N          -1.9278   10.9459   -0.0148 N.1     1  LIG1       -0.1907
     36 C          -2.9176   10.3672   -0.0175 C.1     1  LIG1        0.1040
     37 O          -5.4692   11.6430   -0.0391 O.3     1  LIG1       -0.5049
     38 H          -6.4048   11.8580   -0.0410 H       1  LIG1        0.2922
@<TRIPOS>BOND
     1    38    37    1
     2    34    32    1
     3    37    31    1
     4    32    31   ar
     5    32    33   ar
     6    31    30   ar
     7    30    36    1
     8    30    29   ar
     9    33    29   ar
    10    24    23   ar
    11    24    20   ar
    12    36    35    3
    13    29    23    1
    14    23    22   ar
    15    10     9    1
    16     9     3    1
    17     6     1    1
    18     7     8    3
    19     8     2    1
    20     1     2   ar
    21     1     5   ar
    22     2     3   ar
    23     3     4   ar
    24     4     5   ar
    25     4    11    1
    26    16    17    3
    27    19    18    1
    28    18    13    1
    29    17    12    1
    30    11    12   ar
    31    11    15   ar
    32    12    13   ar
    33    13    14   ar
    34    15    14   ar
    35    14    20    1
    36    20    21   ar
    37    22    21   ar
    38    22    27    1
    39    21    26    1
    40    27    28    1
    41    26    25    3
