@<TRIPOS>MOLECULE
mol_data/noopt/geoms/mol2/5df5df5df-.out
 29 31 0 0 0
SMALL
GASTEIGER

@<TRIPOS>ATOM
      1 C          -2.0792   -1.7080   -0.0002 C.ar    1  LIG1       -0.0027
      2 C          -0.7020   -1.7080   -0.0002 C.ar    1  LIG1        0.1007
      3 C          -0.1766   -0.3757   -0.0002 C.ar    1  LIG1        0.1494
      4 C          -1.1831    0.5643    0.0006 C.ar    1  LIG1        0.0699
      5 S          -2.6937   -0.1528    0.0006 S.2     1  LIG1       -0.0910
      6 H          -2.8374   -2.7640   -0.0008 H       1  LIG1        0.0708
      7 N           0.7138   -3.7033   -0.0006 N.1     1  LIG1       -0.1907
      8 C           0.0503   -2.7682   -0.0004 C.1     1  LIG1        0.1034
      9 O           1.0969   -0.1143   -0.0009 O.3     1  LIG1       -0.5043
     10 H           1.2288    0.8366   -0.0011 H       1  LIG1        0.2922
     11 C          -1.0166    1.8536    0.0014 C.ar    1  LIG1        0.0511
     12 C           0.1956    2.5069    0.0205 C.ar    1  LIG1        0.1090
     13 C           0.0262    3.9290    0.0147 C.ar    1  LIG1        0.1501
     14 C          -1.3056    4.2790   -0.0075 C.ar    1  LIG1        0.0705
     15 S          -2.2951    2.9311   -0.0215 S.2     1  LIG1       -0.0820
     16 N           2.3882    1.4221    0.0591 N.1     1  LIG1       -0.1907
     17 C           1.3607    1.9305    0.0410 C.1     1  LIG1        0.1040
     18 O           1.0231    4.7633    0.0291 O.3     1  LIG1       -0.5043
     19 H           0.6881    5.6629    0.0327 H       1  LIG1        0.2922
     20 C          -1.7706    5.4930   -0.0170 C.ar    1  LIG1        0.0505
     21 C          -1.0134    6.6433   -0.0043 C.ar    1  LIG1        0.1084
     22 C          -1.8371    7.8147   -0.0210 C.ar    1  LIG1        0.1418
     23 C          -3.1754    7.4910   -0.0446 C.ar    1  LIG1        0.0191
     24 S          -3.4072    5.8350   -0.0470 S.2     1  LIG1       -0.0910
     25 H          -4.1606    8.3390   -0.0631 H       1  LIG1        0.0731
     26 N           1.4313    6.7286    0.0406 N.1     1  LIG1       -0.1907
     27 C           0.2856    6.6886    0.0196 C.1     1  LIG1        0.1040
     28 O          -1.3551    9.0221   -0.0141 O.3     1  LIG1       -0.5049
     29 H          -2.0768    9.6552   -0.0124 H       1  LIG1        0.2922
@<TRIPOS>BOND
     1    25    23    1
     2    24    23   ar
     3    24    20   ar
     4    23    22   ar
     5    15    14   ar
     6    15    11   ar
     7    22    28    1
     8    22    21   ar
     9    20    14    1
    10    20    21   ar
    11    28    29    1
    12    14    13   ar
    13    21    27    1
    14    10     9    1
    15     9     3    1
    16     6     1    1
    17     7     8    3
    18     8     2    1
    19     1     2   ar
    20     1     5   ar
    21     2     3   ar
    22     3     4   ar
    23     5     4   ar
    24     4    11    1
    25    11    12   ar
    26    13    12   ar
    27    13    18    1
    28    27    26    3
    29    12    17    1
    30    18    19    1
    31    17    16    3
