@<TRIPOS>MOLECULE
mol_data/noopt/geoms/mol2/5dg5dg5dg-.out
 29 31 0 0 0
SMALL
GASTEIGER

@<TRIPOS>ATOM
      1 C          -2.0792   -1.7080   -0.0002 C.2     1  LIG1       -0.0052
      2 C          -0.7020   -1.7080   -0.0002 C.2     1  LIG1        0.0736
      3 C          -0.1766   -0.3757   -0.0002 C.2     1  LIG1        0.0516
      4 C          -1.1831    0.5643    0.0006 C.2     1  LIG1        0.0420
      5 S          -2.6937   -0.1528    0.0006 S.3     1  LIG1       -0.0937
      6 H          -2.8374   -2.7640   -0.0008 H       1  LIG1        0.0707
      7 N           0.7138   -3.7033   -0.0006 N.1     1  LIG1       -0.1908
      8 C           0.0503   -2.7682   -0.0004 C.1     1  LIG1        0.1008
      9 S           1.0968   -0.1143   -0.0009 S.2     1  LIG1       -0.0495
     10 H           1.2768    1.1833   -0.0011 H       1  LIG1        0.0855
     11 C          -1.0166    1.8536    0.0014 C.2     1  LIG1        0.0374
     12 C           0.1956    2.5069    0.0205 C.2     1  LIG1        0.0249
     13 C           0.0262    3.9290    0.0147 C.2     1  LIG1        0.0435
     14 C          -1.3056    4.2790   -0.0075 C.2     1  LIG1        0.0420
     15 S          -2.2951    2.9311   -0.0215 S.3     1  LIG1       -0.0853
     16 N           2.3882    1.4221    0.0591 N.2     1  LIG1       -0.1570
     17 C           1.3607    1.9305    0.0410 C.2     1  LIG1        0.0593
     18 S           1.0231    4.7632    0.0291 S.2     1  LIG1       -0.0501
     19 H           0.5659    5.9908    0.0339 H       1  LIG1        0.0855
     20 C          -1.7706    5.4930   -0.0170 C.ar    1  LIG1        0.0367
     21 C          -1.0134    6.6433   -0.0043 C.ar    1  LIG1        0.0232
     22 C          -1.8371    7.8147   -0.0210 C.ar    1  LIG1        0.0210
     23 C          -3.1754    7.4910   -0.0446 C.ar    1  LIG1       -0.0099
     24 S          -3.4072    5.8350   -0.0470 S.2     1  LIG1       -0.0943
     25 H          -4.1606    8.3390   -0.0631 H       1  LIG1        0.0705
     26 N           1.4313    6.7286    0.0406 N.2     1  LIG1       -0.1570
     27 C           0.2856    6.6886    0.0196 C.2     1  LIG1        0.0592
     28 S          -1.3552    9.0221   -0.0141 S.3     1  LIG1       -0.1415
     29 H          -2.3400    9.8859   -0.0118 H       1  LIG1        0.1071
@<TRIPOS>BOND
     1    25    23    1
     2    24    23   ar
     3    24    20   ar
     4    23    22   ar
     5    15    14    2
     6    15    11    1
     7    22    28    1
     8    22    21   ar
     9    20    14    1
    10    20    21   ar
    11    28    29    1
    12    14    13    1
    13    21    27    1
    14    10    17    1
    15     9     3    2
    16     6     1    1
    17     7     8    3
    18     8     2    1
    19     1     2    2
    20     1     5    1
    21     2     3    1
    22     3     4    1
    23     5     4    2
    24     4    11    1
    25    11    12    2
    26    13    12    1
    27    13    18    2
    28    27    19    1
    29    27    26    2
    30    12    17    1
    31    17    16    2
