@<TRIPOS>MOLECULE
mol_data/noopt/geoms/mol2/5dg5dg5dg.out
 29 31 0 0 0
SMALL
GASTEIGER

@<TRIPOS>ATOM
      1 C          -2.0792   -1.7080   -0.0002 C.2     1  LIG1       -0.0052
      2 C          -0.7020   -1.7080   -0.0002 C.2     1  LIG1        0.0736
      3 C          -0.1766   -0.3757   -0.0002 C.2     1  LIG1        0.0516
      4 C          -1.1831    0.5643    0.0006 C.2     1  LIG1        0.0420
      5 S          -2.6937   -0.1528    0.0006 S.3     1  LIG1       -0.0937
      6 H          -2.8374   -2.7640   -0.0008 H       1  LIG1        0.0707
      7 N           0.7138   -3.7033   -0.0006 N.1     1  LIG1       -0.1908
      8 C           0.0503   -2.7682   -0.0004 C.1     1  LIG1        0.1008
      9 S           1.0968   -0.1143   -0.0009 S.2     1  LIG1       -0.0495
     10 H           1.2768    1.1833   -0.0011 H       1  LIG1        0.0855
     11 C          -1.0166    1.8536    0.0014 C.2     1  LIG1        0.0374
     12 C           0.1956    2.5069    0.0205 C.2     1  LIG1        0.0249
     13 C           0.0262    3.9290    0.0147 C.2     1  LIG1        0.0435
     14 C          -1.3056    4.2790   -0.0075 C.2     1  LIG1        0.0420
     15 S          -2.2951    2.9311   -0.0215 S.3     1  LIG1       -0.0853
     16 N           2.3882    1.4221    0.0591 N.2     1  LIG1       -0.1570
     17 C           1.3607    1.9305    0.0410 C.2     1  LIG1        0.0593
     18 S           1.0231    4.7632    0.0291 S.2     1  LIG1       -0.0501
     19 H           0.5659    5.9908    0.0339 H       1  LIG1        0.0855
     20 C          -1.7706    5.4930   -0.0170 C.ar    1  LIG1        0.0367
     21 C          -1.0132    6.6432   -0.0232 C.ar    1  LIG1        0.0232
     22 C          -1.8369    7.8147   -0.0340 C.ar    1  LIG1        0.0210
     23 C          -3.1756    7.4910   -0.0345 C.ar    1  LIG1       -0.0099
     24 S          -3.4074    5.8350   -0.0232 S.2     1  LIG1       -0.0943
     25 H          -4.1608    8.3391   -0.0426 H       1  LIG1        0.0705
     26 N           1.4319    6.7284   -0.0174 N.2     1  LIG1       -0.1570
     27 C           0.2860    6.6885   -0.0202 C.2     1  LIG1        0.0592
     28 S          -1.3549    9.0219   -0.0421 S.3     1  LIG1       -0.1415
     29 H          -2.3396    9.8859   -0.0448 H       1  LIG1        0.1071
@<TRIPOS>BOND
     1    29    28    1
     2    25    23    1
     3    28    22    1
     4    23    22   ar
     5    23    24   ar
     6    22    21   ar
     7    21    27    1
     8    21    20   ar
     9    24    20   ar
    10    15    14    2
    11    15    11    1
    12    27    26    2
    13    27    19    1
    14    20    14    1
    15    14    13    1
    16    10    17    1
    17     9     3    2
    18     6     1    1
    19     7     8    3
    20     8     2    1
    21     2     3    1
    22     2     1    2
    23     3     4    1
    24     1     5    1
    25     5     4    2
    26     4    11    1
    27    11    12    2
    28    13    12    1
    29    13    18    2
    30    12    17    1
    31    17    16    2
