@<TRIPOS>MOLECULE
mol_data/noopt/geoms/mol2/5dg5dg5dg-5dg.out
 38 41 0 0 0
SMALL
GASTEIGER

@<TRIPOS>ATOM
      1 C          -2.0792   -1.7080   -0.0002 C.2     1  LIG1       -0.0052
      2 C          -0.7020   -1.7080   -0.0002 C.2     1  LIG1        0.0736
      3 C          -0.1766   -0.3757   -0.0002 C.2     1  LIG1        0.0516
      4 C          -1.1831    0.5643    0.0006 C.2     1  LIG1        0.0420
      5 S          -2.6937   -0.1528    0.0006 S.3     1  LIG1       -0.0937
      6 H          -2.8374   -2.7640   -0.0008 H       1  LIG1        0.0707
      7 N           0.7138   -3.7033   -0.0006 N.1     1  LIG1       -0.1908
      8 C           0.0503   -2.7682   -0.0004 C.1     1  LIG1        0.1008
      9 S           1.0968   -0.1143   -0.0009 S.2     1  LIG1       -0.0495
     10 H           1.2768    1.1833   -0.0011 H       1  LIG1        0.0855
     11 C          -1.0166    1.8536    0.0014 C.2     1  LIG1        0.0374
     12 C           0.1956    2.5069    0.0205 C.2     1  LIG1        0.0249
     13 C           0.0262    3.9290    0.0147 C.2     1  LIG1        0.0435
     14 C          -1.3056    4.2790   -0.0075 C.2     1  LIG1        0.0420
     15 S          -2.2951    2.9311   -0.0215 S.3     1  LIG1       -0.0853
     16 N           2.3882    1.4221    0.0591 N.2     1  LIG1       -0.1570
     17 C           1.3607    1.9305    0.0410 C.2     1  LIG1        0.0593
     18 S           1.0231    4.7632    0.0291 S.2     1  LIG1       -0.0501
     19 H           0.5659    5.9908    0.0339 H       1  LIG1        0.0855
     20 C          -1.7706    5.4930   -0.0170 C.2     1  LIG1        0.0374
     21 C          -1.0134    6.6433   -0.0043 C.2     1  LIG1        0.0249
     22 C          -1.8371    7.8147   -0.0210 C.2     1  LIG1        0.0435
     23 C          -3.1754    7.4910   -0.0446 C.2     1  LIG1        0.0420
     24 S          -3.4072    5.8350   -0.0470 S.3     1  LIG1       -0.0853
     25 N           1.4313    6.7286    0.0406 N.2     1  LIG1       -0.1570
     26 C           0.2856    6.6886    0.0196 C.2     1  LIG1        0.0593
     27 S          -1.3552    9.0221   -0.0141 S.2     1  LIG1       -0.0501
     28 H          -2.3400    9.8859   -0.0118 H       1  LIG1        0.0855
     29 C          -4.1606    8.3390   -0.0631 C.ar    1  LIG1        0.0367
     30 C          -4.0397    9.7109   -0.0560 C.ar    1  LIG1        0.0232
     31 C          -5.3204   10.3513   -0.0823 C.ar    1  LIG1        0.0210
     32 C          -6.3449    9.4313   -0.1072 C.ar    1  LIG1       -0.0099
     33 S          -5.7633    7.8636   -0.0994 S.2     1  LIG1       -0.0943
     34 H          -7.6143    9.7105   -0.1337 H       1  LIG1        0.0705
     35 N          -1.9283   10.9459   -0.0055 N.2     1  LIG1       -0.1570
     36 C          -2.9178   10.3671   -0.0292 C.2     1  LIG1        0.0592
     37 S          -5.4689   11.6428   -0.0821 S.3     1  LIG1       -0.1415
     38 H          -6.7457   11.9361   -0.0821 H       1  LIG1        0.1071
@<TRIPOS>BOND
     1    34    32    1
     2    32    33   ar
     3    32    31   ar
     4    33    29   ar
     5    31    37    1
     6    31    30   ar
     7    37    38    1
     8    29    30   ar
     9    29    23    1
    10    30    36    1
    11    24    23    2
    12    24    20    1
    13    23    22    1
    14    36    28    1
    15    36    35    2
    16    15    14    2
    17    15    11    1
    18    22    27    2
    19    22    21    1
    20    20    14    1
    21    20    21    2
    22    14    13    1
    23    21    26    1
    24    10    17    1
    25     9     3    2
    26     6     1    1
    27     7     8    3
    28     8     2    1
    29     2     1    2
    30     2     3    1
    31     1     5    1
    32     3     4    1
    33     5     4    2
    34     4    11    1
    35    11    12    2
    36    13    12    1
    37    13    18    2
    38    26    19    1
    39    26    25    2
    40    12    17    1
    41    17    16    2
