@<TRIPOS>MOLECULE
mol_data/noopt/geoms/mol2/5dg5dg5dg5dg.out
 38 41 0 0 0
SMALL
GASTEIGER

@<TRIPOS>ATOM
      1 C          -2.0792   -1.7080   -0.0002 C.2     1  LIG1       -0.0052
      2 C          -0.7020   -1.7080   -0.0002 C.2     1  LIG1        0.0736
      3 C          -0.1766   -0.3757   -0.0002 C.2     1  LIG1        0.0516
      4 C          -1.1831    0.5643    0.0006 C.2     1  LIG1        0.0420
      5 S          -2.6937   -0.1528    0.0006 S.3     1  LIG1       -0.0937
      6 H          -2.8374   -2.7640   -0.0008 H       1  LIG1        0.0707
      7 N           0.7138   -3.7033   -0.0006 N.1     1  LIG1       -0.1908
      8 C           0.0503   -2.7682   -0.0004 C.1     1  LIG1        0.1008
      9 S           1.0968   -0.1143   -0.0009 S.2     1  LIG1       -0.0495
     10 H           1.2768    1.1833   -0.0011 H       1  LIG1        0.0855
     11 C          -1.0166    1.8536    0.0014 C.2     1  LIG1        0.0374
     12 C           0.1956    2.5069    0.0205 C.2     1  LIG1        0.0249
     13 C           0.0262    3.9290    0.0147 C.2     1  LIG1        0.0435
     14 C          -1.3056    4.2790   -0.0075 C.2     1  LIG1        0.0420
     15 S          -2.2951    2.9311   -0.0215 S.3     1  LIG1       -0.0853
     16 N           2.3882    1.4221    0.0591 N.2     1  LIG1       -0.1570
     17 C           1.3607    1.9305    0.0410 C.2     1  LIG1        0.0593
     18 S           1.0231    4.7632    0.0291 S.2     1  LIG1       -0.0501
     19 H           0.5659    5.9908    0.0339 H       1  LIG1        0.0855
     20 C          -1.7706    5.4930   -0.0170 C.2     1  LIG1        0.0374
     21 C          -1.0132    6.6432   -0.0232 C.2     1  LIG1        0.0249
     22 C          -1.8369    7.8147   -0.0340 C.2     1  LIG1        0.0435
     23 C          -3.1756    7.4910   -0.0345 C.2     1  LIG1        0.0420
     24 S          -3.4074    5.8350   -0.0232 S.3     1  LIG1       -0.0853
     25 N           1.4319    6.7284   -0.0174 N.2     1  LIG1       -0.1570
     26 C           0.2860    6.6885   -0.0202 C.2     1  LIG1        0.0593
     27 S          -1.3549    9.0219   -0.0421 S.2     1  LIG1       -0.0501
     28 H          -2.3396    9.8859   -0.0448 H       1  LIG1        0.0855
     29 C          -4.1608    8.3391   -0.0426 C.ar    1  LIG1        0.0367
     30 C          -4.0399    9.7109   -0.0290 C.ar    1  LIG1        0.0232
     31 C          -5.3207   10.3514   -0.0442 C.ar    1  LIG1        0.0210
     32 C          -6.3454    9.4315   -0.0677 C.ar    1  LIG1       -0.0099
     33 S          -5.7637    7.8638   -0.0716 S.2     1  LIG1       -0.0943
     34 H          -7.6149    9.7107   -0.0849 H       1  LIG1        0.0705
     35 N          -1.9282   10.9458    0.0151 N.2     1  LIG1       -0.1570
     36 C          -2.9179   10.3671   -0.0056 C.2     1  LIG1        0.0592
     37 S          -5.4693   11.6428   -0.0363 S.3     1  LIG1       -0.1415
     38 H          -6.7460   11.9361   -0.0337 H       1  LIG1        0.1071
@<TRIPOS>BOND
     1    34    32    1
     2    33    32   ar
     3    33    29   ar
     4    32    31   ar
     5    28    36    1
     6    31    37    1
     7    31    30   ar
     8    29    23    1
     9    29    30   ar
    10    27    22    2
    11    37    38    1
    12    23    22    1
    13    23    24    2
    14    22    21    1
    15    30    36    1
    16    21    26    1
    17    21    20    2
    18    24    20    1
    19    15    14    2
    20    15    11    1
    21    26    25    2
    22    26    19    1
    23    20    14    1
    24    14    13    1
    25    36    35    2
    26    10    17    1
    27     9     3    2
    28     6     1    1
    29     7     8    3
    30     8     2    1
    31     2     3    1
    32     2     1    2
    33     3     4    1
    34     1     5    1
    35     5     4    2
    36     4    11    1
    37    11    12    2
    38    13    12    1
    39    13    18    2
    40    12    17    1
    41    17    16    2
