@<TRIPOS>MOLECULE
mol_data/noopt/geoms/mol2/5dg5dg-5dg-5dg-.out
 38 41 0 0 0
SMALL
GASTEIGER

@<TRIPOS>ATOM
      1 C          -2.0792   -1.7080   -0.0002 C.2     1  LIG1       -0.0052
      2 C          -0.7020   -1.7080   -0.0002 C.2     1  LIG1        0.0736
      3 C          -0.1766   -0.3757   -0.0002 C.2     1  LIG1        0.0516
      4 C          -1.1831    0.5643    0.0006 C.2     1  LIG1        0.0420
      5 S          -2.6937   -0.1528    0.0006 S.3     1  LIG1       -0.0937
      6 H          -2.8374   -2.7640   -0.0008 H       1  LIG1        0.0707
      7 N           0.7138   -3.7033   -0.0006 N.1     1  LIG1       -0.1908
      8 C           0.0503   -2.7682   -0.0004 C.1     1  LIG1        0.1008
      9 S           1.0968   -0.1143   -0.0009 S.2     1  LIG1       -0.0495
     10 H           1.2768    1.1833   -0.0011 H       1  LIG1        0.0855
     11 C          -1.0166    1.8536    0.0014 C.2     1  LIG1        0.0374
     12 C           0.1958    2.5069    0.0015 C.2     1  LIG1        0.0249
     13 C           0.0263    3.9290    0.0017 C.2     1  LIG1        0.0435
     14 C          -1.3057    4.2790    0.0026 C.2     1  LIG1        0.0420
     15 S          -2.2953    2.9311    0.0023 S.3     1  LIG1       -0.0853
     16 N           2.3887    1.4221    0.0010 N.2     1  LIG1       -0.1570
     17 C           1.3610    1.9305    0.0013 C.2     1  LIG1        0.0593
     18 S           1.0233    4.7632    0.0012 S.2     1  LIG1       -0.0501
     19 H           0.5662    5.9909    0.0010 H       1  LIG1        0.0855
     20 C          -1.7708    5.4930    0.0035 C.2     1  LIG1        0.0374
     21 C          -1.0136    6.6432    0.0227 C.2     1  LIG1        0.0249
     22 C          -1.8374    7.8147    0.0172 C.2     1  LIG1        0.0435
     23 C          -3.1758    7.4910   -0.0051 C.2     1  LIG1        0.0420
     24 S          -3.4074    5.8351   -0.0192 S.3     1  LIG1       -0.0853
     25 N           1.4312    6.7284    0.0613 N.2     1  LIG1       -0.1570
     26 C           0.2855    6.6885    0.0432 C.2     1  LIG1        0.0593
     27 S          -1.3555    9.0220    0.0317 S.2     1  LIG1       -0.0501
     28 H          -2.3403    9.8858    0.0366 H       1  LIG1        0.0855
     29 C          -4.1610    8.3391   -0.0144 C.ar    1  LIG1        0.0367
     30 C          -4.0399    9.7110   -0.0205 C.ar    1  LIG1        0.0232
     31 C          -5.3208   10.3515   -0.0311 C.ar    1  LIG1        0.0210
     32 C          -6.3457    9.4315   -0.0316 C.ar    1  LIG1       -0.0099
     33 S          -5.7642    7.8638   -0.0205 S.2     1  LIG1       -0.0943
     34 H          -7.6153    9.7107   -0.0396 H       1  LIG1        0.0705
     35 N          -1.9278   10.9459   -0.0148 N.2     1  LIG1       -0.1570
     36 C          -2.9176   10.3672   -0.0175 C.2     1  LIG1        0.0592
     37 S          -5.4692   11.6429   -0.0391 S.3     1  LIG1       -0.1415
     38 H          -6.7459   11.9364   -0.0417 H       1  LIG1        0.1071
@<TRIPOS>BOND
     1    38    37    1
     2    34    32    1
     3    37    31    1
     4    32    31   ar
     5    32    33   ar
     6    31    30   ar
     7    30    36    1
     8    30    29   ar
     9    33    29   ar
    10    24    23    2
    11    24    20    1
    12    36    35    2
    13    36    28    1
    14    29    23    1
    15    23    22    1
    16    10    17    1
    17     9     3    2
    18     6     1    1
    19     7     8    3
    20     8     2    1
    21     1     2    2
    22     1     5    1
    23     2     3    1
    24     3     4    1
    25     4     5    2
    26     4    11    1
    27    19    26    1
    28    16    17    2
    29    18    13    2
    30    17    12    1
    31    11    12    2
    32    11    15    1
    33    12    13    1
    34    13    14    1
    35    15    14    2
    36    14    20    1
    37    20    21    2
    38    22    21    1
    39    22    27    2
    40    21    26    1
    41    26    25    2
