@<TRIPOS>MOLECULE
mol_data/noopt/geoms/mol2/5dg5dg-5dg5dg-.out
 38 41 0 0 0
SMALL
GASTEIGER

@<TRIPOS>ATOM
      1 C          -2.0792   -1.7080   -0.0002 C.2     1  LIG1       -0.0052
      2 C          -0.7020   -1.7080   -0.0002 C.2     1  LIG1        0.0736
      3 C          -0.1766   -0.3757   -0.0002 C.2     1  LIG1        0.0516
      4 C          -1.1831    0.5643    0.0006 C.2     1  LIG1        0.0420
      5 S          -2.6937   -0.1528    0.0006 S.3     1  LIG1       -0.0937
      6 H          -2.8374   -2.7640   -0.0008 H       1  LIG1        0.0707
      7 N           0.7138   -3.7033   -0.0006 N.1     1  LIG1       -0.1908
      8 C           0.0503   -2.7682   -0.0004 C.1     1  LIG1        0.1008
      9 S           1.0968   -0.1143   -0.0009 S.2     1  LIG1       -0.0495
     10 H           1.2768    1.1833   -0.0011 H       1  LIG1        0.0855
     11 C          -1.0166    1.8536    0.0014 C.2     1  LIG1        0.0374
     12 C           0.1958    2.5069    0.0015 C.2     1  LIG1        0.0249
     13 C           0.0263    3.9290    0.0017 C.2     1  LIG1        0.0435
     14 C          -1.3057    4.2790    0.0026 C.2     1  LIG1        0.0420
     15 S          -2.2953    2.9311    0.0023 S.3     1  LIG1       -0.0853
     16 N           2.3887    1.4221    0.0010 N.2     1  LIG1       -0.1570
     17 C           1.3610    1.9305    0.0013 C.2     1  LIG1        0.0593
     18 S           1.0233    4.7632    0.0012 S.2     1  LIG1       -0.0501
     19 H           0.5662    5.9909    0.0010 H       1  LIG1        0.0855
     20 C          -1.7708    5.4930    0.0035 C.2     1  LIG1        0.0374
     21 C          -1.0134    6.6433    0.0038 C.2     1  LIG1        0.0249
     22 C          -1.8373    7.8147    0.0042 C.2     1  LIG1        0.0435
     23 C          -3.1759    7.4910    0.0050 C.2     1  LIG1        0.0420
     24 S          -3.4076    5.8350    0.0046 S.3     1  LIG1       -0.0853
     25 N           1.4317    6.7286    0.0032 N.2     1  LIG1       -0.1570
     26 C           0.2858    6.6886    0.0035 C.2     1  LIG1        0.0593
     27 S          -1.3553    9.0221    0.0038 S.2     1  LIG1       -0.0501
     28 H          -2.3401    9.8860    0.0036 H       1  LIG1        0.0855
     29 C          -4.1612    8.3391    0.0062 C.ar    1  LIG1        0.0367
     30 C          -4.0401    9.7109    0.0065 C.ar    1  LIG1        0.0232
     31 C          -5.3211   10.3514    0.0071 C.ar    1  LIG1        0.0210
     32 C          -6.3459    9.4314    0.0079 C.ar    1  LIG1       -0.0099
     33 S          -5.7643    7.8636    0.0073 S.2     1  LIG1       -0.0943
     34 H          -7.6156    9.7105    0.0092 H       1  LIG1        0.0705
     35 N          -1.9281   10.9460    0.0058 N.2     1  LIG1       -0.1570
     36 C          -2.9179   10.3672    0.0061 C.2     1  LIG1        0.0592
     37 S          -5.4696   11.6428    0.0067 S.3     1  LIG1       -0.1415
     38 H          -6.7463   11.9362    0.0066 H       1  LIG1        0.1071
@<TRIPOS>BOND
     1    10    17    1
     2     9     3    2
     3     6     1    1
     4     7     8    3
     5     8     2    1
     6     2     3    1
     7     2     1    2
     8     3     4    1
     9     1     5    1
    10     4     5    2
    11     4    11    1
    12    19    26    1
    13    16    17    2
    14    18    13    2
    15    17    12    1
    16    11    12    2
    17    11    15    1
    18    12    13    1
    19    13    14    1
    20    15    14    2
    21    14    20    1
    22    25    26    2
    23    26    21    1
    24    20    21    2
    25    20    24    1
    26    28    36    1
    27    27    22    2
    28    21    22    1
    29    22    23    1
    30    24    23    2
    31    23    29    1
    32    35    36    2
    33    36    30    1
    34    29    30   ar
    35    29    33   ar
    36    30    31   ar
    37    38    37    1
    38    37    31    1
    39    31    32   ar
    40    33    32   ar
    41    32    34    1
