@<TRIPOS>MOLECULE
mol_data/noopt/geoms/mol2/5dh.out
 12 12 0 0 0
SMALL
GASTEIGER

@<TRIPOS>ATOM
      1 C          -2.0792   -1.7080   -0.0002 C.ar    1  LIG1       -0.0051
      2 C          -0.7020   -1.7080   -0.0002 C.ar    1  LIG1        0.0793
      3 C          -0.1766   -0.3757   -0.0002 C.ar    1  LIG1        0.0492
      4 C          -1.1831    0.5643    0.0006 C.ar    1  LIG1       -0.0024
      5 S          -2.6937   -0.1528    0.0006 S.2     1  LIG1       -0.1019
      6 H          -2.8374   -2.7640   -0.0008 H       1  LIG1        0.0707
      7 H          -1.0166    1.8536    0.0014 H       1  LIG1        0.0712
      8 N           0.7138   -3.7033   -0.0006 N.1     1  LIG1       -0.1908
      9 C           0.0503   -2.7682   -0.0004 C.1     1  LIG1        0.1015
     10 N           1.0969   -0.1143   -0.0009 N.pl3   1  LIG1       -0.3566
     11 H           1.5873   -0.8472   -0.4725 H       1  LIG1        0.1424
     12 H           1.2590    0.7524   -0.4725 H       1  LIG1        0.1424
@<TRIPOS>BOND
     1    12    10    1
     2    11    10    1
     3    10     3    1
     4     6     1    1
     5     8     9    3
     6     9     2    1
     7     1     2   ar
     8     1     5   ar
     9     2     3   ar
    10     3     4   ar
    11     4     5   ar
    12     4     7    1
