@<TRIPOS>MOLECULE
mol_data/noopt/geoms/mol2/5dh5dh-5dh-.out
 32 34 0 0 0
SMALL
GASTEIGER

@<TRIPOS>ATOM
      1 C          -2.0792   -1.7080   -0.0002 C.ar    1  LIG1       -0.0045
      2 C          -0.7020   -1.7080   -0.0002 C.ar    1  LIG1        0.0800
      3 C          -0.1766   -0.3757   -0.0002 C.ar    1  LIG1        0.0577
      4 C          -1.1831    0.5643    0.0006 C.ar    1  LIG1        0.0491
      5 S          -2.6937   -0.1528    0.0006 S.2     1  LIG1       -0.0929
      6 H          -2.8374   -2.7640   -0.0008 H       1  LIG1        0.0707
      7 N           0.7138   -3.7033   -0.0006 N.1     1  LIG1       -0.1908
      8 C           0.0503   -2.7682   -0.0004 C.1     1  LIG1        0.1016
      9 N           1.0969   -0.1143   -0.0009 N.pl3   1  LIG1       -0.3561
     10 H           1.5873   -0.8472   -0.4725 H       1  LIG1        0.1424
     11 H           1.2590    0.7524   -0.4725 H       1  LIG1        0.1424
     12 C          -1.0166    1.8536    0.0014 C.ar    1  LIG1        0.0475
     13 C           0.1958    2.5069    0.0015 C.ar    1  LIG1        0.0883
     14 C           0.0263    3.9290    0.0017 C.ar    1  LIG1        0.0583
     15 C          -1.3057    4.2790    0.0026 C.ar    1  LIG1        0.0497
     16 S          -2.2953    2.9311    0.0023 S.2     1  LIG1       -0.0839
     17 N           2.3887    1.4221    0.0010 N.1     1  LIG1       -0.1908
     18 C           1.3610    1.9305    0.0013 C.1     1  LIG1        0.1022
     19 N           1.0233    4.7632    0.0012 N.pl3   1  LIG1       -0.3561
     20 H           1.8027    4.3508   -0.4704 H       1  LIG1        0.1424
     21 H           0.7549    5.6032   -0.4704 H       1  LIG1        0.1424
     22 C          -1.7708    5.4930    0.0035 C.ar    1  LIG1        0.0469
     23 C          -1.0136    6.6432    0.0227 C.ar    1  LIG1        0.0876
     24 C          -1.8374    7.8147    0.0172 C.ar    1  LIG1        0.0499
     25 C          -3.1758    7.4910   -0.0051 C.ar    1  LIG1       -0.0018
     26 S          -3.4074    5.8351   -0.0192 S.2     1  LIG1       -0.0929
     27 H          -4.1610    8.3391   -0.0144 H       1  LIG1        0.0712
     28 N           1.4312    6.7284    0.0613 N.1     1  LIG1       -0.1908
     29 C           0.2855    6.6885    0.0432 C.1     1  LIG1        0.1022
     30 N          -1.3555    9.0220    0.0317 N.pl3   1  LIG1       -0.3565
     31 H          -0.4717    9.0338   -0.4360 H       1  LIG1        0.1424
     32 H          -1.9883    9.6391   -0.4360 H       1  LIG1        0.1424
@<TRIPOS>BOND
     1    11     9    1
     2    10     9    1
     3    21    19    1
     4    20    19    1
     5    32    30    1
     6    31    30    1
     7    26    25   ar
     8    26    22   ar
     9    27    25    1
    10    25    24   ar
    11     9     3    1
    12     6     1    1
    13     7     8    3
    14     8     2    1
    15     1     2   ar
    16     1     5   ar
    17     2     3   ar
    18     3     4   ar
    19     4     5   ar
    20     4    12    1
    21    17    18    3
    22    19    14    1
    23    18    13    1
    24    12    13   ar
    25    12    16   ar
    26    13    14   ar
    27    14    15   ar
    28    16    15   ar
    29    15    22    1
    30    22    23   ar
    31    24    23   ar
    32    24    30    1
    33    23    29    1
    34    29    28    3
