@<TRIPOS>MOLECULE
mol_data/noopt/geoms/mol2/5dh5dh5dh5dh-.out
 42 45 0 0 0
SMALL
GASTEIGER

@<TRIPOS>ATOM
      1 C          -2.0792   -1.7080   -0.0002 C.ar    1  LIG1       -0.0045
      2 C          -0.7020   -1.7080   -0.0002 C.ar    1  LIG1        0.0800
      3 C          -0.1766   -0.3757   -0.0002 C.ar    1  LIG1        0.0577
      4 C          -1.1831    0.5643    0.0006 C.ar    1  LIG1        0.0491
      5 S          -2.6937   -0.1528    0.0006 S.2     1  LIG1       -0.0929
      6 H          -2.8374   -2.7640   -0.0008 H       1  LIG1        0.0707
      7 N           0.7138   -3.7033   -0.0006 N.1     1  LIG1       -0.1908
      8 C           0.0503   -2.7682   -0.0004 C.1     1  LIG1        0.1016
      9 N           1.0969   -0.1143   -0.0009 N.pl3   1  LIG1       -0.3561
     10 H           1.5873   -0.8472   -0.4725 H       1  LIG1        0.1424
     11 H           1.2590    0.7524   -0.4725 H       1  LIG1        0.1424
     12 C          -1.0166    1.8536    0.0014 C.ar    1  LIG1        0.0475
     13 C           0.1956    2.5069    0.0205 C.ar    1  LIG1        0.0883
     14 C           0.0262    3.9290    0.0147 C.ar    1  LIG1        0.0583
     15 C          -1.3056    4.2790   -0.0075 C.ar    1  LIG1        0.0497
     16 S          -2.2951    2.9311   -0.0215 S.2     1  LIG1       -0.0839
     17 N           2.3882    1.4221    0.0591 N.1     1  LIG1       -0.1908
     18 C           1.3607    1.9305    0.0410 C.1     1  LIG1        0.1022
     19 N           1.0231    4.7633    0.0291 N.pl3   1  LIG1       -0.3561
     20 H           1.8067    4.3543   -0.4386 H       1  LIG1        0.1424
     21 H           0.7588    5.6066   -0.4386 H       1  LIG1        0.1424
     22 C          -1.7706    5.4930   -0.0170 C.ar    1  LIG1        0.0475
     23 C          -1.0132    6.6432   -0.0232 C.ar    1  LIG1        0.0883
     24 C          -1.8369    7.8147   -0.0340 C.ar    1  LIG1        0.0583
     25 C          -3.1756    7.4910   -0.0345 C.ar    1  LIG1        0.0497
     26 S          -3.4074    5.8350   -0.0232 S.2     1  LIG1       -0.0839
     27 N           1.4319    6.7284   -0.0174 N.1     1  LIG1       -0.1908
     28 C           0.2860    6.6885   -0.0202 C.1     1  LIG1        0.1022
     29 N          -1.3549    9.0220   -0.0421 N.pl3   1  LIG1       -0.3561
     30 H          -0.4741    9.0260   -0.5155 H       1  LIG1        0.1424
     31 H          -1.9906    9.6316   -0.5156 H       1  LIG1        0.1424
     32 C          -4.1608    8.3391   -0.0426 C.ar    1  LIG1        0.0469
     33 C          -4.0397    9.7110   -0.0479 C.ar    1  LIG1        0.0876
     34 C          -5.3206   10.3514   -0.0572 C.ar    1  LIG1        0.0499
     35 C          -6.3455    9.4315   -0.0576 C.ar    1  LIG1       -0.0018
     36 S          -5.7640    7.8637   -0.0478 S.2     1  LIG1       -0.0929
     37 H          -7.6151    9.7107   -0.0644 H       1  LIG1        0.0712
     38 N          -1.9276   10.9459   -0.0430 N.1     1  LIG1       -0.1908
     39 C          -2.9175   10.3672   -0.0453 C.1     1  LIG1        0.1022
     40 N          -5.4690   11.6430   -0.0642 N.pl3   1  LIG1       -0.3565
     41 H          -4.6956   12.0647   -0.5375 H       1  LIG1        0.1424
     42 H          -6.3179   11.8783   -0.5375 H       1  LIG1        0.1424
@<TRIPOS>BOND
     1    42    40    1
     2    41    40    1
     3    31    29    1
     4    30    29    1
     5    11     9    1
     6    10     9    1
     7    21    19    1
     8    20    19    1
     9    37    35    1
    10    40    34    1
    11    35    34   ar
    12    35    36   ar
    13    34    33   ar
    14    33    39    1
    15    33    32   ar
    16    36    32   ar
    17    39    38    3
    18    32    25    1
    19    29    24    1
    20    25    24   ar
    21    25    26   ar
    22    24    23   ar
    23    23    28    1
    24    23    22   ar
    25    26    22   ar
    26    16    15   ar
    27    16    12   ar
    28    28    27    3
    29    22    15    1
    30    15    14   ar
    31     9     3    1
    32     6     1    1
    33     7     8    3
    34     8     2    1
    35     1     2   ar
    36     1     5   ar
    37     3     2   ar
    38     3     4   ar
    39     5     4   ar
    40     4    12    1
    41    12    13   ar
    42    14    13   ar
    43    14    19    1
    44    13    18    1
    45    18    17    3
