@<TRIPOS>MOLECULE
mol_data/noopt/geoms/mol2/5dh5dh5dh.out
 32 34 0 0 0
SMALL
GASTEIGER

@<TRIPOS>ATOM
      1 C          -2.0792   -1.7080   -0.0002 C.ar    1  LIG1       -0.0045
      2 C          -0.7020   -1.7080   -0.0002 C.ar    1  LIG1        0.0800
      3 C          -0.1766   -0.3757   -0.0002 C.ar    1  LIG1        0.0577
      4 C          -1.1831    0.5643    0.0006 C.ar    1  LIG1        0.0491
      5 S          -2.6937   -0.1528    0.0006 S.2     1  LIG1       -0.0929
      6 H          -2.8374   -2.7640   -0.0008 H       1  LIG1        0.0707
      7 N           0.7138   -3.7033   -0.0006 N.1     1  LIG1       -0.1908
      8 C           0.0503   -2.7682   -0.0004 C.1     1  LIG1        0.1016
      9 N           1.0969   -0.1143   -0.0009 N.pl3   1  LIG1       -0.3561
     10 H           1.5873   -0.8472   -0.4725 H       1  LIG1        0.1424
     11 H           1.2590    0.7524   -0.4725 H       1  LIG1        0.1424
     12 C          -1.0166    1.8536    0.0014 C.ar    1  LIG1        0.0475
     13 C           0.1956    2.5069    0.0205 C.ar    1  LIG1        0.0883
     14 C           0.0262    3.9290    0.0147 C.ar    1  LIG1        0.0583
     15 C          -1.3056    4.2790   -0.0075 C.ar    1  LIG1        0.0497
     16 S          -2.2951    2.9311   -0.0215 S.2     1  LIG1       -0.0839
     17 N           2.3882    1.4221    0.0591 N.1     1  LIG1       -0.1908
     18 C           1.3607    1.9305    0.0410 C.1     1  LIG1        0.1022
     19 N           1.0231    4.7633    0.0291 N.pl3   1  LIG1       -0.3561
     20 H           1.8067    4.3543   -0.4386 H       1  LIG1        0.1424
     21 H           0.7588    5.6066   -0.4386 H       1  LIG1        0.1424
     22 C          -1.7706    5.4930   -0.0170 C.ar    1  LIG1        0.0469
     23 C          -1.0132    6.6432   -0.0232 C.ar    1  LIG1        0.0876
     24 C          -1.8369    7.8147   -0.0340 C.ar    1  LIG1        0.0499
     25 C          -3.1756    7.4910   -0.0345 C.ar    1  LIG1       -0.0018
     26 S          -3.4074    5.8350   -0.0232 S.2     1  LIG1       -0.0929
     27 H          -4.1608    8.3391   -0.0426 H       1  LIG1        0.0712
     28 N           1.4319    6.7284   -0.0174 N.1     1  LIG1       -0.1908
     29 C           0.2860    6.6885   -0.0202 C.1     1  LIG1        0.1022
     30 N          -1.3549    9.0220   -0.0421 N.pl3   1  LIG1       -0.3565
     31 H          -0.4741    9.0260   -0.5155 H       1  LIG1        0.1424
     32 H          -1.9906    9.6316   -0.5156 H       1  LIG1        0.1424
@<TRIPOS>BOND
     1    32    30    1
     2    31    30    1
     3    11     9    1
     4    10     9    1
     5    21    19    1
     6    20    19    1
     7    27    25    1
     8    30    24    1
     9    25    24   ar
    10    25    26   ar
    11    24    23   ar
    12    23    29    1
    13    23    22   ar
    14    26    22   ar
    15    16    15   ar
    16    16    12   ar
    17    29    28    3
    18    22    15    1
    19    15    14   ar
    20     9     3    1
    21     6     1    1
    22     7     8    3
    23     8     2    1
    24     1     2   ar
    25     1     5   ar
    26     3     2   ar
    27     3     4   ar
    28     5     4   ar
    29     4    12    1
    30    12    13   ar
    31    14    13   ar
    32    14    19    1
    33    13    18    1
    34    18    17    3
