@<TRIPOS>MOLECULE
mol_data/noopt/geoms/mol2/5dh5dh-5dh5dh-.out
 42 45 0 0 0
SMALL
GASTEIGER

@<TRIPOS>ATOM
      1 C          -2.0792   -1.7080   -0.0002 C.ar    1  LIG1       -0.0045
      2 C          -0.7020   -1.7080   -0.0002 C.ar    1  LIG1        0.0800
      3 C          -0.1766   -0.3757   -0.0002 C.ar    1  LIG1        0.0577
      4 C          -1.1831    0.5643    0.0006 C.ar    1  LIG1        0.0491
      5 S          -2.6937   -0.1528    0.0006 S.2     1  LIG1       -0.0929
      6 H          -2.8374   -2.7640   -0.0008 H       1  LIG1        0.0707
      7 N           0.7138   -3.7033   -0.0006 N.1     1  LIG1       -0.1908
      8 C           0.0503   -2.7682   -0.0004 C.1     1  LIG1        0.1016
      9 N           1.0969   -0.1143   -0.0009 N.pl3   1  LIG1       -0.3561
     10 H           1.5873   -0.8472   -0.4725 H       1  LIG1        0.1424
     11 H           1.2590    0.7524   -0.4725 H       1  LIG1        0.1424
     12 C          -1.0166    1.8536    0.0014 C.ar    1  LIG1        0.0475
     13 C           0.1958    2.5069    0.0015 C.ar    1  LIG1        0.0883
     14 C           0.0263    3.9290    0.0017 C.ar    1  LIG1        0.0583
     15 C          -1.3057    4.2790    0.0026 C.ar    1  LIG1        0.0497
     16 S          -2.2953    2.9311    0.0023 S.2     1  LIG1       -0.0839
     17 N           2.3887    1.4221    0.0010 N.1     1  LIG1       -0.1908
     18 C           1.3610    1.9305    0.0013 C.1     1  LIG1        0.1022
     19 N           1.0233    4.7632    0.0012 N.pl3   1  LIG1       -0.3561
     20 H           1.8027    4.3508   -0.4704 H       1  LIG1        0.1424
     21 H           0.7549    5.6032   -0.4704 H       1  LIG1        0.1424
     22 C          -1.7708    5.4930    0.0035 C.ar    1  LIG1        0.0475
     23 C          -1.0134    6.6433    0.0038 C.ar    1  LIG1        0.0883
     24 C          -1.8373    7.8147    0.0042 C.ar    1  LIG1        0.0583
     25 C          -3.1759    7.4910    0.0050 C.ar    1  LIG1        0.0497
     26 S          -3.4076    5.8350    0.0046 S.2     1  LIG1       -0.0839
     27 N           1.4317    6.7286    0.0032 N.1     1  LIG1       -0.1908
     28 C           0.2858    6.6886    0.0035 C.1     1  LIG1        0.1022
     29 N          -1.3553    9.0221    0.0038 N.pl3   1  LIG1       -0.3561
     30 H          -0.4735    9.0288   -0.4678 H       1  LIG1        0.1424
     31 H          -1.9901    9.6342   -0.4678 H       1  LIG1        0.1424
     32 C          -4.1612    8.3391    0.0062 C.ar    1  LIG1        0.0469
     33 C          -4.0401    9.7109    0.0065 C.ar    1  LIG1        0.0876
     34 C          -5.3211   10.3514    0.0071 C.ar    1  LIG1        0.0499
     35 C          -6.3459    9.4314    0.0079 C.ar    1  LIG1       -0.0018
     36 S          -5.7643    7.8636    0.0073 S.2     1  LIG1       -0.0929
     37 H          -7.6156    9.7105    0.0092 H       1  LIG1        0.0712
     38 N          -1.9281   10.9460    0.0058 N.1     1  LIG1       -0.1908
     39 C          -2.9179   10.3672    0.0061 C.1     1  LIG1        0.1022
     40 N          -5.4696   11.6429    0.0067 N.pl3   1  LIG1       -0.3565
     41 H          -4.6965   12.0672   -0.4647 H       1  LIG1        0.1424
     42 H          -6.3188   11.8807   -0.4648 H       1  LIG1        0.1424
@<TRIPOS>BOND
     1    11     9    1
     2    10     9    1
     3    21    19    1
     4    20    19    1
     5    31    29    1
     6    30    29    1
     7    42    40    1
     8    41    40    1
     9     9     3    1
    10     6     1    1
    11     7     8    3
    12     8     2    1
    13     1     2   ar
    14     1     5   ar
    15     2     3   ar
    16     3     4   ar
    17     4     5   ar
    18     4    12    1
    19    17    18    3
    20    19    14    1
    21    18    13    1
    22    12    13   ar
    23    12    16   ar
    24    13    14   ar
    25    14    15   ar
    26    16    15   ar
    27    15    22    1
    28    27    28    3
    29    28    23    1
    30    22    23   ar
    31    22    26   ar
    32    29    24    1
    33    23    24   ar
    34    24    25   ar
    35    26    25   ar
    36    25    32    1
    37    38    39    3
    38    39    33    1
    39    32    33   ar
    40    32    36   ar
    41    33    34   ar
    42    40    34    1
    43    34    35   ar
    44    36    35   ar
    45    35    37    1
