@<TRIPOS>MOLECULE
mol_data/noopt/geoms/mol2/5dh5dh-5dh.out
 32 34 0 0 0
SMALL
GASTEIGER

@<TRIPOS>ATOM
      1 C          -2.0792   -1.7080   -0.0002 C.ar    1  LIG1       -0.0045
      2 C          -0.7020   -1.7080   -0.0002 C.ar    1  LIG1        0.0800
      3 C          -0.1766   -0.3757   -0.0002 C.ar    1  LIG1        0.0577
      4 C          -1.1831    0.5643    0.0006 C.ar    1  LIG1        0.0491
      5 S          -2.6937   -0.1528    0.0006 S.2     1  LIG1       -0.0929
      6 H          -2.8374   -2.7640   -0.0008 H       1  LIG1        0.0707
      7 N           0.7138   -3.7033   -0.0006 N.1     1  LIG1       -0.1908
      8 C           0.0503   -2.7682   -0.0004 C.1     1  LIG1        0.1016
      9 N           1.0969   -0.1143   -0.0009 N.pl3   1  LIG1       -0.3561
     10 H           1.5873   -0.8472   -0.4725 H       1  LIG1        0.1424
     11 H           1.2590    0.7524   -0.4725 H       1  LIG1        0.1424
     12 C          -1.0166    1.8536    0.0014 C.ar    1  LIG1        0.0475
     13 C           0.1958    2.5069    0.0015 C.ar    1  LIG1        0.0883
     14 C           0.0263    3.9290    0.0017 C.ar    1  LIG1        0.0583
     15 C          -1.3057    4.2790    0.0026 C.ar    1  LIG1        0.0497
     16 S          -2.2953    2.9311    0.0023 S.2     1  LIG1       -0.0839
     17 N           2.3887    1.4221    0.0010 N.1     1  LIG1       -0.1908
     18 C           1.3610    1.9305    0.0013 C.1     1  LIG1        0.1022
     19 N           1.0233    4.7632    0.0012 N.pl3   1  LIG1       -0.3561
     20 H           1.8027    4.3508   -0.4704 H       1  LIG1        0.1424
     21 H           0.7549    5.6032   -0.4704 H       1  LIG1        0.1424
     22 C          -1.7708    5.4930    0.0035 C.ar    1  LIG1        0.0469
     23 C          -1.0134    6.6433    0.0038 C.ar    1  LIG1        0.0876
     24 C          -1.8373    7.8147    0.0042 C.ar    1  LIG1        0.0499
     25 C          -3.1759    7.4910    0.0050 C.ar    1  LIG1       -0.0018
     26 S          -3.4076    5.8350    0.0046 S.2     1  LIG1       -0.0929
     27 H          -4.1612    8.3391    0.0062 H       1  LIG1        0.0712
     28 N           1.4317    6.7286    0.0032 N.1     1  LIG1       -0.1908
     29 C           0.2858    6.6886    0.0035 C.1     1  LIG1        0.1022
     30 N          -1.3553    9.0221    0.0038 N.pl3   1  LIG1       -0.3565
     31 H          -0.4735    9.0288   -0.4678 H       1  LIG1        0.1424
     32 H          -1.9901    9.6342   -0.4678 H       1  LIG1        0.1424
@<TRIPOS>BOND
     1    11     9    1
     2    10     9    1
     3    21    19    1
     4    20    19    1
     5    32    30    1
     6    31    30    1
     7     9     3    1
     8     6     1    1
     9     7     8    3
    10     8     2    1
    11     1     2   ar
    12     1     5   ar
    13     2     3   ar
    14     3     4   ar
    15     4     5   ar
    16     4    12    1
    17    17    18    3
    18    19    14    1
    19    18    13    1
    20    12    13   ar
    21    12    16   ar
    22    13    14   ar
    23    14    15   ar
    24    16    15   ar
    25    15    22    1
    26    28    29    3
    27    29    23    1
    28    22    23   ar
    29    22    26   ar
    30    30    24    1
    31    23    24   ar
    32    24    25   ar
    33    26    25   ar
    34    25    27    1
