@<TRIPOS>MOLECULE
mol_data/noopt/geoms/mol2/5di5di-.out
 24 25 0 0 0
SMALL
GASTEIGER

@<TRIPOS>ATOM
      1 C          -2.0792   -1.7080   -0.0002 C.ar    1  LIG1       -0.0061
      2 C          -0.7020   -1.7080   -0.0002 C.ar    1  LIG1        0.0623
      3 C          -0.1766   -0.3757   -0.0002 C.ar    1  LIG1       -0.0178
      4 C          -1.1831    0.5643    0.0006 C.ar    1  LIG1        0.0313
      5 S          -2.6937   -0.1528    0.0006 S.2     1  LIG1       -0.0945
      6 H          -2.8374   -2.7640   -0.0008 H       1  LIG1        0.0706
      7 N           0.7138   -3.7033   -0.0006 N.1     1  LIG1       -0.1908
      8 C           0.0503   -2.7682   -0.0004 C.1     1  LIG1        0.1000
      9 C           1.0972   -0.1142   -0.0009 C.3     1  LIG1       -0.0374
     10 H           1.2712    0.8133    0.5033 H       1  LIG1        0.0278
     11 H           1.4460   -0.0426   -1.0099 H       1  LIG1        0.0278
     12 H           1.6224   -0.8983    0.5033 H       1  LIG1        0.0278
     13 C          -1.0166    1.8536    0.0014 C.ar    1  LIG1        0.0438
     14 C           0.1958    2.5069    0.0015 C.ar    1  LIG1        0.0699
     15 C           0.0263    3.9290    0.0017 C.ar    1  LIG1       -0.0255
     16 C          -1.3057    4.2790    0.0026 C.ar    1  LIG1       -0.0196
     17 S          -2.2953    2.9311    0.0023 S.2     1  LIG1       -0.0945
     18 H          -1.7708    5.4930    0.0035 H       1  LIG1        0.0696
     19 N           2.3887    1.4221    0.0010 N.1     1  LIG1       -0.1908
     20 C           1.3610    1.9305    0.0013 C.1     1  LIG1        0.1006
     21 C           1.0235    4.7634    0.0012 C.3     1  LIG1       -0.0380
     22 H           0.7366    5.6625    0.5055 H       1  LIG1        0.0278
     23 H           1.2967    4.9921   -1.0078 H       1  LIG1        0.0278
     24 H           1.8579    4.3223    0.5054 H       1  LIG1        0.0278
@<TRIPOS>BOND
     1    11     9    1
     2    23    21    1
     3     9     3    1
     4     9    12    1
     5     9    10    1
     6     6     1    1
     7     7     8    3
     8     8     2    1
     9     2     3   ar
    10     2     1   ar
    11     3     4   ar
    12     1     5   ar
    13     4     5   ar
    14     4    13    1
    15    19    20    3
    16    21    15    1
    17    21    24    1
    18    21    22    1
    19    20    14    1
    20    13    14   ar
    21    13    17   ar
    22    14    15   ar
    23    15    16   ar
    24    17    16   ar
    25    16    18    1
