@<TRIPOS>MOLECULE
mol_data/noopt/geoms/mol2/5di5di-5di-.out
 35 37 0 0 0
SMALL
GASTEIGER

@<TRIPOS>ATOM
      1 C          -2.0792   -1.7080   -0.0002 C.ar    1  LIG1       -0.0061
      2 C          -0.7020   -1.7080   -0.0002 C.ar    1  LIG1        0.0623
      3 C          -0.1766   -0.3757   -0.0002 C.ar    1  LIG1       -0.0178
      4 C          -1.1831    0.5643    0.0006 C.ar    1  LIG1        0.0313
      5 S          -2.6937   -0.1528    0.0006 S.2     1  LIG1       -0.0945
      6 H          -2.8374   -2.7640   -0.0008 H       1  LIG1        0.0706
      7 N           0.7138   -3.7033   -0.0006 N.1     1  LIG1       -0.1908
      8 C           0.0503   -2.7682   -0.0004 C.1     1  LIG1        0.1000
      9 C           1.0972   -0.1142   -0.0009 C.3     1  LIG1       -0.0374
     10 H           1.2712    0.8133    0.5033 H       1  LIG1        0.0278
     11 H           1.4460   -0.0426   -1.0099 H       1  LIG1        0.0278
     12 H           1.6224   -0.8983    0.5033 H       1  LIG1        0.0278
     13 C          -1.0166    1.8536    0.0014 C.ar    1  LIG1        0.0444
     14 C           0.1958    2.5069    0.0015 C.ar    1  LIG1        0.0705
     15 C           0.0263    3.9290    0.0017 C.ar    1  LIG1       -0.0172
     16 C          -1.3057    4.2790    0.0026 C.ar    1  LIG1        0.0319
     17 S          -2.2953    2.9311    0.0023 S.2     1  LIG1       -0.0856
     18 N           2.3887    1.4221    0.0010 N.1     1  LIG1       -0.1908
     19 C           1.3610    1.9305    0.0013 C.1     1  LIG1        0.1006
     20 C           1.0235    4.7634    0.0012 C.3     1  LIG1       -0.0374
     21 H           0.7366    5.6625    0.5055 H       1  LIG1        0.0278
     22 H           1.2967    4.9921   -1.0078 H       1  LIG1        0.0278
     23 H           1.8579    4.3223    0.5054 H       1  LIG1        0.0278
     24 C          -1.7708    5.4930    0.0035 C.ar    1  LIG1        0.0438
     25 C          -1.0136    6.6432    0.0227 C.ar    1  LIG1        0.0699
     26 C          -1.8374    7.8147    0.0172 C.ar    1  LIG1       -0.0255
     27 C          -3.1758    7.4910   -0.0051 C.ar    1  LIG1       -0.0196
     28 S          -3.4074    5.8351   -0.0192 S.2     1  LIG1       -0.0945
     29 H          -4.1610    8.3391   -0.0144 H       1  LIG1        0.0696
     30 N           1.4312    6.7284    0.0613 N.1     1  LIG1       -0.1908
     31 C           0.2855    6.6885    0.0432 C.1     1  LIG1        0.1006
     32 C          -1.3554    9.0223    0.0317 C.3     1  LIG1       -0.0380
     33 H          -2.0366    9.6722    0.5401 H       1  LIG1        0.0278
     34 H          -1.2191    9.3640   -0.9731 H       1  LIG1        0.0278
     35 H          -0.4138    9.0244    0.5400 H       1  LIG1        0.0278
@<TRIPOS>BOND
     1    11     9    1
     2    22    20    1
     3    34    32    1
     4    28    27   ar
     5    28    24   ar
     6    29    27    1
     7    27    26   ar
     8     9     3    1
     9     9    12    1
    10     9    10    1
    11     6     1    1
    12     7     8    3
    13     8     2    1
    14     2     3   ar
    15     2     1   ar
    16     3     4   ar
    17     1     5   ar
    18     4     5   ar
    19     4    13    1
    20    18    19    3
    21    20    15    1
    22    20    23    1
    23    20    21    1
    24    19    14    1
    25    13    14   ar
    26    13    17   ar
    27    14    15   ar
    28    15    16   ar
    29    17    16   ar
    30    16    24    1
    31    24    25   ar
    32    26    25   ar
    33    26    32    1
    34    25    31    1
    35    32    35    1
    36    32    33    1
    37    31    30    3
