@<TRIPOS>MOLECULE
mol_data/noopt/geoms/mol2/5di5di5di5di-.out
 46 49 0 0 0
SMALL
GASTEIGER

@<TRIPOS>ATOM
      1 C          -2.0792   -1.7080   -0.0002 C.ar    1  LIG1       -0.0061
      2 C          -0.7020   -1.7080   -0.0002 C.ar    1  LIG1        0.0623
      3 C          -0.1766   -0.3757   -0.0002 C.ar    1  LIG1       -0.0178
      4 C          -1.1831    0.5643    0.0006 C.ar    1  LIG1        0.0313
      5 S          -2.6937   -0.1528    0.0006 S.2     1  LIG1       -0.0945
      6 H          -2.8374   -2.7640   -0.0008 H       1  LIG1        0.0706
      7 N           0.7138   -3.7033   -0.0006 N.1     1  LIG1       -0.1908
      8 C           0.0503   -2.7682   -0.0004 C.1     1  LIG1        0.1000
      9 C           1.0972   -0.1142   -0.0009 C.3     1  LIG1       -0.0374
     10 H           1.2712    0.8133    0.5033 H       1  LIG1        0.0278
     11 H           1.4460   -0.0426   -1.0099 H       1  LIG1        0.0278
     12 H           1.6224   -0.8983    0.5033 H       1  LIG1        0.0278
     13 C          -1.0166    1.8536    0.0014 C.ar    1  LIG1        0.0444
     14 C           0.1956    2.5069    0.0205 C.ar    1  LIG1        0.0705
     15 C           0.0262    3.9290    0.0147 C.ar    1  LIG1       -0.0172
     16 C          -1.3056    4.2790   -0.0075 C.ar    1  LIG1        0.0319
     17 S          -2.2951    2.9311   -0.0215 S.2     1  LIG1       -0.0856
     18 N           2.3882    1.4221    0.0591 N.1     1  LIG1       -0.1908
     19 C           1.3607    1.9305    0.0410 C.1     1  LIG1        0.1006
     20 C           1.0233    4.7634    0.0291 C.3     1  LIG1       -0.0374
     21 H           0.7319    5.6588    0.5375 H       1  LIG1        0.0278
     22 H           1.3054    4.9995   -0.9757 H       1  LIG1        0.0278
     23 H           1.8532    4.3187    0.5374 H       1  LIG1        0.0278
     24 C          -1.7706    5.4930   -0.0170 C.ar    1  LIG1        0.0444
     25 C          -1.0132    6.6432   -0.0232 C.ar    1  LIG1        0.0705
     26 C          -1.8369    7.8147   -0.0340 C.ar    1  LIG1       -0.0172
     27 C          -3.1756    7.4910   -0.0345 C.ar    1  LIG1        0.0319
     28 S          -3.4074    5.8350   -0.0232 S.2     1  LIG1       -0.0856
     29 N           1.4319    6.7284   -0.0174 N.1     1  LIG1       -0.1908
     30 C           0.2860    6.6885   -0.0202 C.1     1  LIG1        0.1006
     31 C          -1.3548    9.0223   -0.0421 C.3     1  LIG1       -0.0374
     32 H          -2.0327    9.6804    0.4601 H       1  LIG1        0.0278
     33 H          -1.2249    9.3477   -1.0531 H       1  LIG1        0.0278
     34 H          -0.4100    9.0324    0.4601 H       1  LIG1        0.0278
     35 C          -4.1608    8.3391   -0.0426 C.ar    1  LIG1        0.0438
     36 C          -4.0397    9.7110   -0.0479 C.ar    1  LIG1        0.0699
     37 C          -5.3206   10.3514   -0.0572 C.ar    1  LIG1       -0.0255
     38 C          -6.3455    9.4315   -0.0576 C.ar    1  LIG1       -0.0196
     39 S          -5.7640    7.8637   -0.0478 S.2     1  LIG1       -0.0945
     40 H          -7.6151    9.7107   -0.0644 H       1  LIG1        0.0696
     41 N          -1.9276   10.9459   -0.0430 N.1     1  LIG1       -0.1908
     42 C          -2.9175   10.3672   -0.0453 C.1     1  LIG1        0.1006
     43 C          -5.4690   11.6432   -0.0642 C.3     1  LIG1       -0.0380
     44 H          -6.3780   11.9006    0.4382 H       1  LIG1        0.0278
     45 H          -5.5092   11.9922   -1.0750 H       1  LIG1        0.0278
     46 H          -4.6421   12.1000    0.4382 H       1  LIG1        0.0278
@<TRIPOS>BOND
     1    45    43    1
     2    33    31    1
     3    11     9    1
     4    22    20    1
     5    40    38    1
     6    43    37    1
     7    43    46    1
     8    43    44    1
     9    38    37   ar
    10    38    39   ar
    11    37    36   ar
    12    36    42    1
    13    36    35   ar
    14    39    35   ar
    15    42    41    3
    16    35    27    1
    17    31    26    1
    18    31    34    1
    19    31    32    1
    20    27    26   ar
    21    27    28   ar
    22    26    25   ar
    23    25    30    1
    24    25    24   ar
    25    28    24   ar
    26    17    16   ar
    27    17    13   ar
    28    30    29    3
    29    24    16    1
    30    16    15   ar
    31     9     3    1
    32     9    12    1
    33     9    10    1
    34     6     1    1
    35     7     8    3
    36     8     2    1
    37     1     2   ar
    38     1     5   ar
    39     2     3   ar
    40     3     4   ar
    41     4     5   ar
    42     4    13    1
    43    13    14   ar
    44    15    14   ar
    45    15    20    1
    46    14    19    1
    47    20    23    1
    48    20    21    1
    49    19    18    3
