@<TRIPOS>MOLECULE
mol_data/noopt/geoms/mol2/5di5di-5di5di-.out
 46 49 0 0 0
SMALL
GASTEIGER

@<TRIPOS>ATOM
      1 C          -2.0792   -1.7080   -0.0002 C.ar    1  LIG1       -0.0061
      2 C          -0.7020   -1.7080   -0.0002 C.ar    1  LIG1        0.0623
      3 C          -0.1766   -0.3757   -0.0002 C.ar    1  LIG1       -0.0178
      4 C          -1.1831    0.5643    0.0006 C.ar    1  LIG1        0.0313
      5 S          -2.6937   -0.1528    0.0006 S.2     1  LIG1       -0.0945
      6 H          -2.8374   -2.7640   -0.0008 H       1  LIG1        0.0706
      7 N           0.7138   -3.7033   -0.0006 N.1     1  LIG1       -0.1908
      8 C           0.0503   -2.7682   -0.0004 C.1     1  LIG1        0.1000
      9 C           1.0972   -0.1142   -0.0009 C.3     1  LIG1       -0.0374
     10 H           1.2712    0.8133    0.5033 H       1  LIG1        0.0278
     11 H           1.4460   -0.0426   -1.0099 H       1  LIG1        0.0278
     12 H           1.6224   -0.8983    0.5033 H       1  LIG1        0.0278
     13 C          -1.0166    1.8536    0.0014 C.ar    1  LIG1        0.0444
     14 C           0.1958    2.5069    0.0015 C.ar    1  LIG1        0.0705
     15 C           0.0263    3.9290    0.0017 C.ar    1  LIG1       -0.0172
     16 C          -1.3057    4.2790    0.0026 C.ar    1  LIG1        0.0319
     17 S          -2.2953    2.9311    0.0023 S.2     1  LIG1       -0.0856
     18 N           2.3887    1.4221    0.0010 N.1     1  LIG1       -0.1908
     19 C           1.3610    1.9305    0.0013 C.1     1  LIG1        0.1006
     20 C           1.0235    4.7634    0.0012 C.3     1  LIG1       -0.0374
     21 H           0.7366    5.6625    0.5055 H       1  LIG1        0.0278
     22 H           1.2967    4.9921   -1.0078 H       1  LIG1        0.0278
     23 H           1.8579    4.3223    0.5054 H       1  LIG1        0.0278
     24 C          -1.7708    5.4930    0.0035 C.ar    1  LIG1        0.0444
     25 C          -1.0134    6.6433    0.0038 C.ar    1  LIG1        0.0705
     26 C          -1.8373    7.8147    0.0042 C.ar    1  LIG1       -0.0172
     27 C          -3.1759    7.4910    0.0050 C.ar    1  LIG1        0.0319
     28 S          -3.4076    5.8350    0.0046 S.2     1  LIG1       -0.0856
     29 N           1.4317    6.7286    0.0032 N.1     1  LIG1       -0.1908
     30 C           0.2858    6.6886    0.0035 C.1     1  LIG1        0.1006
     31 C          -1.3552    9.0224    0.0038 C.3     1  LIG1       -0.0374
     32 H          -2.0343    9.6777    0.5081 H       1  LIG1        0.0278
     33 H          -1.2231    9.3534   -1.0052 H       1  LIG1        0.0278
     34 H          -0.4115    9.0299    0.5080 H       1  LIG1        0.0278
     35 C          -4.1612    8.3391    0.0062 C.ar    1  LIG1        0.0438
     36 C          -4.0401    9.7109    0.0065 C.ar    1  LIG1        0.0699
     37 C          -5.3211   10.3514    0.0071 C.ar    1  LIG1       -0.0255
     38 C          -6.3459    9.4314    0.0079 C.ar    1  LIG1       -0.0196
     39 S          -5.7643    7.8636    0.0073 S.2     1  LIG1       -0.0945
     40 H          -7.6156    9.7105    0.0092 H       1  LIG1        0.0696
     41 N          -1.9281   10.9460    0.0058 N.1     1  LIG1       -0.1908
     42 C          -2.9179   10.3672    0.0061 C.1     1  LIG1        0.1006
     43 C          -5.4696   11.6432    0.0067 C.3     1  LIG1       -0.0380
     44 H          -6.3783   11.8979    0.5111 H       1  LIG1        0.0278
     45 H          -5.5104   11.9973   -1.0022 H       1  LIG1        0.0278
     46 H          -4.6424   12.0974    0.5110 H       1  LIG1        0.0278
@<TRIPOS>BOND
     1    11     9    1
     2    22    20    1
     3    33    31    1
     4    45    43    1
     5     9     3    1
     6     9    12    1
     7     9    10    1
     8     6     1    1
     9     7     8    3
    10     8     2    1
    11     2     3   ar
    12     2     1   ar
    13     3     4   ar
    14     1     5   ar
    15     4     5   ar
    16     4    13    1
    17    18    19    3
    18    20    15    1
    19    20    23    1
    20    20    21    1
    21    19    14    1
    22    13    14   ar
    23    13    17   ar
    24    14    15   ar
    25    15    16   ar
    26    17    16   ar
    27    16    24    1
    28    29    30    3
    29    30    25    1
    30    24    25   ar
    31    24    28   ar
    32    31    26    1
    33    31    34    1
    34    31    32    1
    35    25    26   ar
    36    26    27   ar
    37    28    27   ar
    38    27    35    1
    39    41    42    3
    40    42    36    1
    41    35    36   ar
    42    35    39   ar
    43    36    37   ar
    44    43    37    1
    45    43    46    1
    46    43    44    1
    47    37    38   ar
    48    39    38   ar
    49    38    40    1
