@<TRIPOS>MOLECULE
mol_data/noopt/geoms/mol2/5di5di-5di-5di.out
 46 49 0 0 0
SMALL
GASTEIGER

@<TRIPOS>ATOM
      1 C          -2.0792   -1.7080   -0.0002 C.ar    1  LIG1       -0.0061
      2 C          -0.7020   -1.7080   -0.0002 C.ar    1  LIG1        0.0623
      3 C          -0.1766   -0.3757   -0.0002 C.ar    1  LIG1       -0.0178
      4 C          -1.1831    0.5643    0.0006 C.ar    1  LIG1        0.0313
      5 S          -2.6937   -0.1528    0.0006 S.2     1  LIG1       -0.0945
      6 H          -2.8374   -2.7640   -0.0008 H       1  LIG1        0.0706
      7 N           0.7138   -3.7033   -0.0006 N.1     1  LIG1       -0.1908
      8 C           0.0503   -2.7682   -0.0004 C.1     1  LIG1        0.1000
      9 C           1.0972   -0.1142   -0.0009 C.3     1  LIG1       -0.0374
     10 H           1.2712    0.8133    0.5033 H       1  LIG1        0.0278
     11 H           1.4460   -0.0426   -1.0099 H       1  LIG1        0.0278
     12 H           1.6224   -0.8983    0.5033 H       1  LIG1        0.0278
     13 C          -1.0166    1.8536    0.0014 C.ar    1  LIG1        0.0444
     14 C           0.1958    2.5069    0.0015 C.ar    1  LIG1        0.0705
     15 C           0.0263    3.9290    0.0017 C.ar    1  LIG1       -0.0172
     16 C          -1.3057    4.2790    0.0026 C.ar    1  LIG1        0.0319
     17 S          -2.2953    2.9311    0.0023 S.2     1  LIG1       -0.0856
     18 N           2.3887    1.4221    0.0010 N.1     1  LIG1       -0.1908
     19 C           1.3610    1.9305    0.0013 C.1     1  LIG1        0.1006
     20 C           1.0235    4.7634    0.0012 C.3     1  LIG1       -0.0374
     21 H           0.7366    5.6625    0.5055 H       1  LIG1        0.0278
     22 H           1.2967    4.9921   -1.0078 H       1  LIG1        0.0278
     23 H           1.8579    4.3223    0.5054 H       1  LIG1        0.0278
     24 C          -1.7708    5.4930    0.0035 C.ar    1  LIG1        0.0444
     25 C          -1.0136    6.6432    0.0227 C.ar    1  LIG1        0.0705
     26 C          -1.8374    7.8147    0.0172 C.ar    1  LIG1       -0.0172
     27 C          -3.1758    7.4910   -0.0051 C.ar    1  LIG1        0.0319
     28 S          -3.4074    5.8351   -0.0192 S.2     1  LIG1       -0.0856
     29 N           1.4312    6.7284    0.0613 N.1     1  LIG1       -0.1908
     30 C           0.2855    6.6885    0.0432 C.1     1  LIG1        0.1006
     31 C          -1.3554    9.0223    0.0317 C.3     1  LIG1       -0.0374
     32 H          -2.0366    9.6722    0.5401 H       1  LIG1        0.0278
     33 H          -1.2191    9.3640   -0.9731 H       1  LIG1        0.0278
     34 H          -0.4138    9.0244    0.5400 H       1  LIG1        0.0278
     35 C          -4.1610    8.3391   -0.0144 C.ar    1  LIG1        0.0438
     36 C          -4.0401    9.7110   -0.0016 C.ar    1  LIG1        0.0699
     37 C          -5.3209   10.3515   -0.0181 C.ar    1  LIG1       -0.0255
     38 C          -6.3455    9.4316   -0.0417 C.ar    1  LIG1       -0.0196
     39 S          -5.7639    7.8638   -0.0443 S.2     1  LIG1       -0.0945
     40 H          -7.6151    9.7108   -0.0601 H       1  LIG1        0.0696
     41 N          -1.9285   10.9458    0.0433 N.1     1  LIG1       -0.1908
     42 C          -2.9181   10.3671    0.0222 C.1     1  LIG1        0.1006
     43 C          -5.4695   11.6433   -0.0111 C.3     1  LIG1       -0.0380
     44 H          -6.3779   11.8951    0.4952 H       1  LIG1        0.0278
     45 H          -5.5109   12.0030   -1.0181 H       1  LIG1        0.0278
     46 H          -4.6420   12.0947    0.4951 H       1  LIG1        0.0278
@<TRIPOS>BOND
     1    45    43    1
     2    11     9    1
     3    22    20    1
     4    33    31    1
     5    40    38    1
     6    39    38   ar
     7    39    35   ar
     8    38    37   ar
     9    28    27   ar
    10    28    24   ar
    11    37    43    1
    12    37    36   ar
    13    35    27    1
    14    35    36   ar
    15    43    46    1
    16    43    44    1
    17    27    26   ar
    18    36    42    1
    19     9     3    1
    20     9    12    1
    21     9    10    1
    22     6     1    1
    23     7     8    3
    24     8     2    1
    25     1     2   ar
    26     1     5   ar
    27     3     2   ar
    28     3     4   ar
    29     5     4   ar
    30     4    13    1
    31    18    19    3
    32    20    15    1
    33    20    23    1
    34    20    21    1
    35    19    14    1
    36    13    14   ar
    37    13    17   ar
    38    14    15   ar
    39    15    16   ar
    40    17    16   ar
    41    16    24    1
    42    24    25   ar
    43    26    25   ar
    44    26    31    1
    45    42    41    3
    46    25    30    1
    47    31    34    1
    48    31    32    1
    49    30    29    3
