@<TRIPOS>MOLECULE
mol_data/noopt/geoms/mol2/5di5di5di.out
 35 37 0 0 0
SMALL
GASTEIGER

@<TRIPOS>ATOM
      1 C          -2.0792   -1.7080   -0.0002 C.ar    1  LIG1       -0.0061
      2 C          -0.7020   -1.7080   -0.0002 C.ar    1  LIG1        0.0623
      3 C          -0.1766   -0.3757   -0.0002 C.ar    1  LIG1       -0.0178
      4 C          -1.1831    0.5643    0.0006 C.ar    1  LIG1        0.0313
      5 S          -2.6937   -0.1528    0.0006 S.2     1  LIG1       -0.0945
      6 H          -2.8374   -2.7640   -0.0008 H       1  LIG1        0.0706
      7 N           0.7138   -3.7033   -0.0006 N.1     1  LIG1       -0.1908
      8 C           0.0503   -2.7682   -0.0004 C.1     1  LIG1        0.1000
      9 C           1.0972   -0.1142   -0.0009 C.3     1  LIG1       -0.0374
     10 H           1.2712    0.8133    0.5033 H       1  LIG1        0.0278
     11 H           1.4460   -0.0426   -1.0099 H       1  LIG1        0.0278
     12 H           1.6224   -0.8983    0.5033 H       1  LIG1        0.0278
     13 C          -1.0166    1.8536    0.0014 C.ar    1  LIG1        0.0444
     14 C           0.1956    2.5069    0.0205 C.ar    1  LIG1        0.0705
     15 C           0.0262    3.9290    0.0147 C.ar    1  LIG1       -0.0172
     16 C          -1.3056    4.2790   -0.0075 C.ar    1  LIG1        0.0319
     17 S          -2.2951    2.9311   -0.0215 S.2     1  LIG1       -0.0856
     18 N           2.3882    1.4221    0.0591 N.1     1  LIG1       -0.1908
     19 C           1.3607    1.9305    0.0410 C.1     1  LIG1        0.1006
     20 C           1.0233    4.7634    0.0291 C.3     1  LIG1       -0.0374
     21 H           0.7319    5.6588    0.5375 H       1  LIG1        0.0278
     22 H           1.3054    4.9995   -0.9757 H       1  LIG1        0.0278
     23 H           1.8532    4.3187    0.5374 H       1  LIG1        0.0278
     24 C          -1.7706    5.4930   -0.0170 C.ar    1  LIG1        0.0438
     25 C          -1.0132    6.6432   -0.0232 C.ar    1  LIG1        0.0699
     26 C          -1.8369    7.8147   -0.0340 C.ar    1  LIG1       -0.0255
     27 C          -3.1756    7.4910   -0.0345 C.ar    1  LIG1       -0.0196
     28 S          -3.4074    5.8350   -0.0232 S.2     1  LIG1       -0.0945
     29 H          -4.1608    8.3391   -0.0426 H       1  LIG1        0.0696
     30 N           1.4319    6.7284   -0.0174 N.1     1  LIG1       -0.1908
     31 C           0.2860    6.6885   -0.0202 C.1     1  LIG1        0.1006
     32 C          -1.3548    9.0223   -0.0421 C.3     1  LIG1       -0.0380
     33 H          -2.0327    9.6804    0.4601 H       1  LIG1        0.0278
     34 H          -1.2249    9.3477   -1.0531 H       1  LIG1        0.0278
     35 H          -0.4100    9.0324    0.4601 H       1  LIG1        0.0278
@<TRIPOS>BOND
     1    34    32    1
     2    11     9    1
     3    22    20    1
     4    29    27    1
     5    32    26    1
     6    32    35    1
     7    32    33    1
     8    27    26   ar
     9    27    28   ar
    10    26    25   ar
    11    25    31    1
    12    25    24   ar
    13    28    24   ar
    14    17    16   ar
    15    17    13   ar
    16    31    30    3
    17    24    16    1
    18    16    15   ar
    19     9     3    1
    20     9    12    1
    21     9    10    1
    22     6     1    1
    23     7     8    3
    24     8     2    1
    25     1     2   ar
    26     1     5   ar
    27     3     2   ar
    28     3     4   ar
    29     5     4   ar
    30     4    13    1
    31    13    14   ar
    32    15    14   ar
    33    15    20    1
    34    14    19    1
    35    20    23    1
    36    20    21    1
    37    19    18    3
