@<TRIPOS>MOLECULE
mol_data/noopt/geoms/mol2/5di5di5di-5di.out
 46 49 0 0 0
SMALL
GASTEIGER

@<TRIPOS>ATOM
      1 C          -2.0792   -1.7080   -0.0002 C.ar    1  LIG1       -0.0061
      2 C          -0.7020   -1.7080   -0.0002 C.ar    1  LIG1        0.0623
      3 C          -0.1766   -0.3757   -0.0002 C.ar    1  LIG1       -0.0178
      4 C          -1.1831    0.5643    0.0006 C.ar    1  LIG1        0.0313
      5 S          -2.6937   -0.1528    0.0006 S.2     1  LIG1       -0.0945
      6 H          -2.8374   -2.7640   -0.0008 H       1  LIG1        0.0706
      7 N           0.7138   -3.7033   -0.0006 N.1     1  LIG1       -0.1908
      8 C           0.0503   -2.7682   -0.0004 C.1     1  LIG1        0.1000
      9 C           1.0972   -0.1142   -0.0009 C.3     1  LIG1       -0.0374
     10 H           1.2712    0.8133    0.5033 H       1  LIG1        0.0278
     11 H           1.4460   -0.0426   -1.0099 H       1  LIG1        0.0278
     12 H           1.6224   -0.8983    0.5033 H       1  LIG1        0.0278
     13 C          -1.0166    1.8536    0.0014 C.ar    1  LIG1        0.0444
     14 C           0.1956    2.5069    0.0205 C.ar    1  LIG1        0.0705
     15 C           0.0262    3.9290    0.0147 C.ar    1  LIG1       -0.0172
     16 C          -1.3056    4.2790   -0.0075 C.ar    1  LIG1        0.0319
     17 S          -2.2951    2.9311   -0.0215 S.2     1  LIG1       -0.0856
     18 N           2.3882    1.4221    0.0591 N.1     1  LIG1       -0.1908
     19 C           1.3607    1.9305    0.0410 C.1     1  LIG1        0.1006
     20 C           1.0233    4.7634    0.0291 C.3     1  LIG1       -0.0374
     21 H           0.7319    5.6588    0.5375 H       1  LIG1        0.0278
     22 H           1.3054    4.9995   -0.9757 H       1  LIG1        0.0278
     23 H           1.8532    4.3187    0.5374 H       1  LIG1        0.0278
     24 C          -1.7706    5.4930   -0.0170 C.ar    1  LIG1        0.0444
     25 C          -1.0134    6.6433   -0.0043 C.ar    1  LIG1        0.0705
     26 C          -1.8371    7.8147   -0.0210 C.ar    1  LIG1       -0.0172
     27 C          -3.1754    7.4910   -0.0446 C.ar    1  LIG1        0.0319
     28 S          -3.4072    5.8350   -0.0470 S.2     1  LIG1       -0.0856
     29 N           1.4313    6.7286    0.0406 N.1     1  LIG1       -0.1908
     30 C           0.2856    6.6886    0.0196 C.1     1  LIG1        0.1006
     31 C          -1.3550    9.0224   -0.0141 C.3     1  LIG1       -0.0374
     32 H          -2.0352    9.6750    0.4922 H       1  LIG1        0.0278
     33 H          -1.2209    9.3586   -1.0211 H       1  LIG1        0.0278
     34 H          -0.4124    9.0273    0.4921 H       1  LIG1        0.0278
     35 C          -4.1606    8.3390   -0.0631 C.ar    1  LIG1        0.0438
     36 C          -4.0397    9.7109   -0.0560 C.ar    1  LIG1        0.0699
     37 C          -5.3204   10.3513   -0.0823 C.ar    1  LIG1       -0.0255
     38 C          -6.3449    9.4313   -0.1072 C.ar    1  LIG1       -0.0196
     39 S          -5.7633    7.8636   -0.0994 S.2     1  LIG1       -0.0945
     40 H          -7.6143    9.7105   -0.1337 H       1  LIG1        0.0696
     41 N          -1.9283   10.9459   -0.0055 N.1     1  LIG1       -0.1908
     42 C          -2.9178   10.3671   -0.0292 C.1     1  LIG1        0.1006
     43 C          -5.4690   11.6431   -0.0821 C.3     1  LIG1       -0.0380
     44 H          -6.3776   11.8976    0.4224 H       1  LIG1        0.0278
     45 H          -5.5098   11.9976   -1.0909 H       1  LIG1        0.0278
     46 H          -4.6417   12.0972    0.4223 H       1  LIG1        0.0278
@<TRIPOS>BOND
     1    45    43    1
     2    33    31    1
     3    11     9    1
     4    22    20    1
     5    40    38    1
     6    38    39   ar
     7    38    37   ar
     8    39    35   ar
     9    37    43    1
    10    37    36   ar
    11    43    46    1
    12    43    44    1
    13    35    36   ar
    14    35    27    1
    15    36    42    1
    16    28    27   ar
    17    28    24   ar
    18    27    26   ar
    19    42    41    3
    20    17    16   ar
    21    17    13   ar
    22    26    31    1
    23    26    25   ar
    24    24    16    1
    25    24    25   ar
    26    31    34    1
    27    31    32    1
    28    16    15   ar
    29    25    30    1
    30     9     3    1
    31     9    12    1
    32     9    10    1
    33     6     1    1
    34     7     8    3
    35     8     2    1
    36     1     2   ar
    37     1     5   ar
    38     2     3   ar
    39     3     4   ar
    40     4     5   ar
    41     4    13    1
    42    13    14   ar
    43    15    14   ar
    44    15    20    1
    45    30    29    3
    46    14    19    1
    47    20    23    1
    48    20    21    1
    49    19    18    3
