@<TRIPOS>MOLECULE
mol_data/noopt/geoms/mol2/5dl.out
 14 14 0 0 0
SMALL
GASTEIGER

@<TRIPOS>ATOM
      1 C          -2.0792   -1.7080   -0.0002 C.ar    1  LIG1       -0.0033
      2 C          -0.7020   -1.7080   -0.0002 C.ar    1  LIG1        0.1003
      3 C          -0.1766   -0.3757   -0.0002 C.ar    1  LIG1        0.1444
      4 C          -1.1831    0.5643    0.0006 C.ar    1  LIG1        0.0187
      5 S          -2.6937   -0.1528    0.0006 S.2     1  LIG1       -0.1000
      6 H          -2.8374   -2.7640   -0.0008 H       1  LIG1        0.0707
      7 H          -1.0166    1.8536    0.0014 H       1  LIG1        0.0730
      8 N           0.7138   -3.7033   -0.0006 N.1     1  LIG1       -0.1907
      9 C           0.0503   -2.7682   -0.0004 C.1     1  LIG1        0.1034
     10 O           1.0969   -0.1143   -0.0009 O.3     1  LIG1       -0.4933
     11 C           1.8355   -1.3388   -0.0012 C.3     1  LIG1        0.0789
     12 H           2.8835   -1.1232   -0.0020 H       1  LIG1        0.0660
     13 H           1.5884   -1.9046    0.8727 H       1  LIG1        0.0660
     14 H           1.5872   -1.9049   -0.8746 H       1  LIG1        0.0660
@<TRIPOS>BOND
     1    14    11    1
     2    12    11    1
     3    11    10    1
     4    11    13    1
     5    10     3    1
     6     6     1    1
     7     8     9    3
     8     9     2    1
     9     1     2   ar
    10     1     5   ar
    11     2     3   ar
    12     3     4   ar
    13     4     5   ar
    14     4     7    1
