@<TRIPOS>MOLECULE
mol_data/noopt/geoms/mol2/5dl5dl-.out
 26 27 0 0 0
SMALL
GASTEIGER

@<TRIPOS>ATOM
      1 C          -2.0792   -1.7080   -0.0002 C.ar    1  LIG1       -0.0027
      2 C          -0.7020   -1.7080   -0.0002 C.ar    1  LIG1        0.1009
      3 C          -0.1766   -0.3757   -0.0002 C.ar    1  LIG1        0.1526
      4 C          -1.1831    0.5643    0.0006 C.ar    1  LIG1        0.0701
      5 S          -2.6937   -0.1528    0.0006 S.2     1  LIG1       -0.0910
      6 H          -2.8374   -2.7640   -0.0008 H       1  LIG1        0.0708
      7 N           0.7138   -3.7033   -0.0006 N.1     1  LIG1       -0.1907
      8 C           0.0503   -2.7682   -0.0004 C.1     1  LIG1        0.1034
      9 O           1.0969   -0.1143   -0.0009 O.3     1  LIG1       -0.4927
     10 C           1.8355   -1.3388   -0.0012 C.3     1  LIG1        0.0789
     11 H           2.8835   -1.1232   -0.0020 H       1  LIG1        0.0660
     12 H           1.5884   -1.9046    0.8727 H       1  LIG1        0.0660
     13 H           1.5872   -1.9049   -0.8746 H       1  LIG1        0.0660
     14 C          -1.0166    1.8536    0.0014 C.ar    1  LIG1        0.0504
     15 C           0.1958    2.5069    0.0015 C.ar    1  LIG1        0.1086
     16 C           0.0263    3.9290    0.0017 C.ar    1  LIG1        0.1450
     17 C          -1.3057    4.2790    0.0026 C.ar    1  LIG1        0.0193
     18 S          -2.2953    2.9311    0.0023 S.2     1  LIG1       -0.0910
     19 H          -1.7708    5.4930    0.0035 H       1  LIG1        0.0731
     20 N           2.3887    1.4221    0.0010 N.1     1  LIG1       -0.1907
     21 C           1.3610    1.9305    0.0013 C.1     1  LIG1        0.1040
     22 O           1.0233    4.7633    0.0012 O.3     1  LIG1       -0.4933
     23 C           2.2544    4.0357    0.0009 C.3     1  LIG1        0.0789
     24 H           3.0747    4.7226    0.0003 H       1  LIG1        0.0660
     25 H           2.3052    3.4203    0.8748 H       1  LIG1        0.0660
     26 H           2.3044    3.4196   -0.8725 H       1  LIG1        0.0660
@<TRIPOS>BOND
     1    13    10    1
     2    26    23    1
     3    11    10    1
     4    10     9    1
     5    10    12    1
     6     9     3    1
     7     6     1    1
     8     7     8    3
     9     8     2    1
    10     1     2   ar
    11     1     5   ar
    12     2     3   ar
    13     3     4   ar
    14    24    23    1
    15     5     4   ar
    16     4    14    1
    17    23    22    1
    18    23    25    1
    19    20    21    3
    20    22    16    1
    21    21    15    1
    22    14    15   ar
    23    14    18   ar
    24    15    16   ar
    25    16    17   ar
    26    18    17   ar
    27    17    19    1
