@<TRIPOS>MOLECULE
mol_data/noopt/geoms/mol2/5dl5dl.out
 26 27 0 0 0
SMALL
GASTEIGER

@<TRIPOS>ATOM
      1 C          -2.0792   -1.7080   -0.0002 C.ar    1  LIG1       -0.0027
      2 C          -0.7020   -1.7080   -0.0002 C.ar    1  LIG1        0.1009
      3 C          -0.1766   -0.3757   -0.0002 C.ar    1  LIG1        0.1526
      4 C          -1.1831    0.5643    0.0006 C.ar    1  LIG1        0.0701
      5 S          -2.6937   -0.1528    0.0006 S.2     1  LIG1       -0.0910
      6 H          -2.8374   -2.7640   -0.0008 H       1  LIG1        0.0708
      7 N           0.7138   -3.7033   -0.0006 N.1     1  LIG1       -0.1907
      8 C           0.0503   -2.7682   -0.0004 C.1     1  LIG1        0.1034
      9 O           1.0969   -0.1143   -0.0009 O.3     1  LIG1       -0.4927
     10 C           1.8355   -1.3388   -0.0012 C.3     1  LIG1        0.0789
     11 H           2.8835   -1.1232   -0.0020 H       1  LIG1        0.0660
     12 H           1.5884   -1.9046    0.8727 H       1  LIG1        0.0660
     13 H           1.5872   -1.9049   -0.8746 H       1  LIG1        0.0660
     14 C          -1.0166    1.8536    0.0014 C.ar    1  LIG1        0.0504
     15 C           0.1956    2.5069    0.0205 C.ar    1  LIG1        0.1086
     16 C           0.0262    3.9290    0.0147 C.ar    1  LIG1        0.1450
     17 C          -1.3056    4.2790   -0.0075 C.ar    1  LIG1        0.0193
     18 S          -2.2951    2.9311   -0.0215 S.2     1  LIG1       -0.0910
     19 H          -1.7706    5.4930   -0.0170 H       1  LIG1        0.0731
     20 N           2.3882    1.4221    0.0591 N.1     1  LIG1       -0.1907
     21 C           1.3607    1.9305    0.0410 C.1     1  LIG1        0.1040
     22 O           1.0231    4.7633    0.0291 O.3     1  LIG1       -0.4933
     23 C           2.2542    4.0357    0.0343 C.3     1  LIG1        0.0789
     24 H           3.0745    4.7227    0.0460 H       1  LIG1        0.0660
     25 H           2.2974    3.4139    0.9041 H       1  LIG1        0.0660
     26 H           2.3120    3.4261   -0.8431 H       1  LIG1        0.0660
@<TRIPOS>BOND
     1    13    10    1
     2    26    23    1
     3    18    17   ar
     4    18    14   ar
     5    19    17    1
     6    17    16   ar
     7    11    10    1
     8    10     9    1
     9    10    12    1
    10     9     3    1
    11     6     1    1
    12     7     8    3
    13     8     2    1
    14     1     2   ar
    15     1     5   ar
    16     3     2   ar
    17     3     4   ar
    18     5     4   ar
    19     4    14    1
    20    14    15   ar
    21    16    15   ar
    22    16    22    1
    23    15    21    1
    24    22    23    1
    25    23    24    1
    26    23    25    1
    27    21    20    3
