@<TRIPOS>MOLECULE
mol_data/noopt/geoms/mol2/5dl5dl5dl-5dl.out
 50 53 0 0 0
SMALL
GASTEIGER

@<TRIPOS>ATOM
      1 C          -2.0792   -1.7080   -0.0002 C.ar    1  LIG1       -0.0027
      2 C          -0.7020   -1.7080   -0.0002 C.ar    1  LIG1        0.1009
      3 C          -0.1766   -0.3757   -0.0002 C.ar    1  LIG1        0.1526
      4 C          -1.1831    0.5643    0.0006 C.ar    1  LIG1        0.0702
      5 S          -2.6937   -0.1528    0.0006 S.2     1  LIG1       -0.0910
      6 H          -2.8374   -2.7640   -0.0008 H       1  LIG1        0.0708
      7 N           0.7138   -3.7033   -0.0006 N.1     1  LIG1       -0.1907
      8 C           0.0503   -2.7682   -0.0004 C.1     1  LIG1        0.1034
      9 O           1.0969   -0.1143   -0.0009 O.3     1  LIG1       -0.4927
     10 C           1.8355   -1.3388   -0.0012 C.3     1  LIG1        0.0789
     11 H           2.8835   -1.1232   -0.0020 H       1  LIG1        0.0660
     12 H           1.5884   -1.9046    0.8727 H       1  LIG1        0.0660
     13 H           1.5872   -1.9049   -0.8746 H       1  LIG1        0.0660
     14 C          -1.0166    1.8536    0.0014 C.ar    1  LIG1        0.0511
     15 C           0.1956    2.5069    0.0205 C.ar    1  LIG1        0.1093
     16 C           0.0262    3.9290    0.0147 C.ar    1  LIG1        0.1533
     17 C          -1.3056    4.2790   -0.0075 C.ar    1  LIG1        0.0708
     18 S          -2.2951    2.9311   -0.0215 S.2     1  LIG1       -0.0820
     19 N           2.3882    1.4221    0.0591 N.1     1  LIG1       -0.1907
     20 C           1.3607    1.9305    0.0410 C.1     1  LIG1        0.1040
     21 O           1.0231    4.7633    0.0291 O.3     1  LIG1       -0.4926
     22 C           2.2542    4.0357    0.0343 C.3     1  LIG1        0.0789
     23 H           3.0745    4.7227    0.0460 H       1  LIG1        0.0660
     24 H           2.2974    3.4139    0.9041 H       1  LIG1        0.0660
     25 H           2.3120    3.4261   -0.8431 H       1  LIG1        0.0660
     26 C          -1.7706    5.4930   -0.0170 C.ar    1  LIG1        0.0511
     27 C          -1.0134    6.6433   -0.0043 C.ar    1  LIG1        0.1093
     28 C          -1.8371    7.8147   -0.0210 C.ar    1  LIG1        0.1533
     29 C          -3.1754    7.4910   -0.0446 C.ar    1  LIG1        0.0707
     30 S          -3.4072    5.8350   -0.0470 S.2     1  LIG1       -0.0820
     31 N           1.4313    6.7286    0.0406 N.1     1  LIG1       -0.1907
     32 C           0.2856    6.6886    0.0196 C.1     1  LIG1        0.1040
     33 O          -1.3551    9.0221   -0.0141 O.3     1  LIG1       -0.4926
     34 C           0.0737    8.9657   -0.0117 C.3     1  LIG1        0.0789
     35 H           0.4700    9.9596   -0.0062 H       1  LIG1        0.0660
     36 H           0.4086    8.4435    0.8602 H       1  LIG1        0.0660
     37 H           0.4119    8.4518   -0.8871 H       1  LIG1        0.0660
     38 C          -4.1606    8.3390   -0.0631 C.ar    1  LIG1        0.0505
     39 C          -4.0397    9.7109   -0.0560 C.ar    1  LIG1        0.1086
     40 C          -5.3204   10.3513   -0.0823 C.ar    1  LIG1        0.1450
     41 C          -6.3449    9.4313   -0.1072 C.ar    1  LIG1        0.0193
     42 S          -5.7633    7.8636   -0.0994 S.2     1  LIG1       -0.0910
     43 H          -7.6143    9.7105   -0.1337 H       1  LIG1        0.0731
     44 N          -1.9283   10.9459   -0.0055 N.1     1  LIG1       -0.1907
     45 C          -2.9178   10.3671   -0.0292 C.1     1  LIG1        0.1040
     46 O          -5.4689   11.6429   -0.0821 O.3     1  LIG1       -0.4933
     47 C          -4.1843   12.2710   -0.0821 C.3     1  LIG1        0.0789
     48 H          -4.3070   13.3340   -0.0821 H       1  LIG1        0.0660
     49 H          -3.6423   11.9746    0.7916 H       1  LIG1        0.0660
     50 H          -3.6423   11.9746   -0.9557 H       1  LIG1        0.0660
@<TRIPOS>BOND
     1    50    47    1
     2    37    34    1
     3    13    10    1
     4    25    22    1
     5    43    41    1
     6    41    42   ar
     7    41    40   ar
     8    42    38   ar
     9    40    46    1
    10    40    39   ar
    11    48    47    1
    12    47    46    1
    13    47    49    1
    14    38    39   ar
    15    38    29    1
    16    39    45    1
    17    30    29   ar
    18    30    26   ar
    19    29    28   ar
    20    45    44    3
    21    18    17   ar
    22    18    14   ar
    23    28    33    1
    24    28    27   ar
    25    26    17    1
    26    26    27   ar
    27    33    34    1
    28    34    35    1
    29    34    36    1
    30    17    16   ar
    31    27    32    1
    32    11    10    1
    33    10     9    1
    34    10    12    1
    35     9     3    1
    36     6     1    1
    37     7     8    3
    38     8     2    1
    39     2     3   ar
    40     2     1   ar
    41     3     4   ar
    42     1     5   ar
    43     4     5   ar
    44     4    14    1
    45    14    15   ar
    46    16    15   ar
    47    16    21    1
    48    32    31    3
    49    15    20    1
    50    21    22    1
    51    22    23    1
    52    22    24    1
    53    20    19    3
