@<TRIPOS>MOLECULE
mol_data/noopt/geoms/mol2/5dl5dl-5dl-5dl.out
 50 53 0 0 0
SMALL
GASTEIGER

@<TRIPOS>ATOM
      1 C          -2.0792   -1.7080   -0.0002 C.ar    1  LIG1       -0.0027
      2 C          -0.7020   -1.7080   -0.0002 C.ar    1  LIG1        0.1009
      3 C          -0.1766   -0.3757   -0.0002 C.ar    1  LIG1        0.1526
      4 C          -1.1831    0.5643    0.0006 C.ar    1  LIG1        0.0702
      5 S          -2.6937   -0.1528    0.0006 S.2     1  LIG1       -0.0910
      6 H          -2.8374   -2.7640   -0.0008 H       1  LIG1        0.0708
      7 N           0.7138   -3.7033   -0.0006 N.1     1  LIG1       -0.1907
      8 C           0.0503   -2.7682   -0.0004 C.1     1  LIG1        0.1034
      9 O           1.0969   -0.1143   -0.0009 O.3     1  LIG1       -0.4927
     10 C           1.8355   -1.3388   -0.0012 C.3     1  LIG1        0.0789
     11 H           2.8835   -1.1232   -0.0020 H       1  LIG1        0.0660
     12 H           1.5884   -1.9046    0.8727 H       1  LIG1        0.0660
     13 H           1.5872   -1.9049   -0.8746 H       1  LIG1        0.0660
     14 C          -1.0166    1.8536    0.0014 C.ar    1  LIG1        0.0511
     15 C           0.1958    2.5069    0.0015 C.ar    1  LIG1        0.1093
     16 C           0.0263    3.9290    0.0017 C.ar    1  LIG1        0.1533
     17 C          -1.3057    4.2790    0.0026 C.ar    1  LIG1        0.0708
     18 S          -2.2953    2.9311    0.0023 S.2     1  LIG1       -0.0820
     19 N           2.3887    1.4221    0.0010 N.1     1  LIG1       -0.1907
     20 C           1.3610    1.9305    0.0013 C.1     1  LIG1        0.1040
     21 O           1.0233    4.7633    0.0012 O.3     1  LIG1       -0.4926
     22 C           2.2544    4.0357    0.0009 C.3     1  LIG1        0.0789
     23 H           3.0747    4.7226    0.0003 H       1  LIG1        0.0660
     24 H           2.3052    3.4203    0.8748 H       1  LIG1        0.0660
     25 H           2.3044    3.4196   -0.8725 H       1  LIG1        0.0660
     26 C          -1.7708    5.4930    0.0035 C.ar    1  LIG1        0.0511
     27 C          -1.0136    6.6432    0.0227 C.ar    1  LIG1        0.1093
     28 C          -1.8374    7.8147    0.0172 C.ar    1  LIG1        0.1533
     29 C          -3.1758    7.4910   -0.0051 C.ar    1  LIG1        0.0707
     30 S          -3.4074    5.8351   -0.0192 S.2     1  LIG1       -0.0820
     31 N           1.4312    6.7284    0.0613 N.1     1  LIG1       -0.1907
     32 C           0.2855    6.6885    0.0432 C.1     1  LIG1        0.1040
     33 O          -1.3555    9.0221    0.0317 O.3     1  LIG1       -0.4926
     34 C           0.0734    8.9656    0.0369 C.3     1  LIG1        0.0789
     35 H           0.4696    9.9595    0.0487 H       1  LIG1        0.0660
     36 H           0.4064    8.4386    0.9067 H       1  LIG1        0.0660
     37 H           0.4135    8.4565   -0.8405 H       1  LIG1        0.0660
     38 C          -4.1610    8.3391   -0.0144 C.ar    1  LIG1        0.0505
     39 C          -4.0401    9.7110   -0.0016 C.ar    1  LIG1        0.1086
     40 C          -5.3209   10.3515   -0.0181 C.ar    1  LIG1        0.1450
     41 C          -6.3455    9.4316   -0.0417 C.ar    1  LIG1        0.0193
     42 S          -5.7639    7.8638   -0.0443 S.2     1  LIG1       -0.0910
     43 H          -7.6151    9.7108   -0.0601 H       1  LIG1        0.0731
     44 N          -1.9285   10.9458    0.0433 N.1     1  LIG1       -0.1907
     45 C          -2.9181   10.3671    0.0222 C.1     1  LIG1        0.1040
     46 O          -5.4695   11.6430   -0.0111 O.3     1  LIG1       -0.4933
     47 C          -4.1848   12.2711   -0.0087 C.3     1  LIG1        0.0789
     48 H          -4.3075   13.3341   -0.0031 H       1  LIG1        0.0660
     49 H          -3.6423   11.9702    0.8632 H       1  LIG1        0.0660
     50 H          -3.6433   11.9792   -0.8841 H       1  LIG1        0.0660
@<TRIPOS>BOND
     1    50    47    1
     2    13    10    1
     3    25    22    1
     4    37    34    1
     5    43    41    1
     6    42    41   ar
     7    42    38   ar
     8    41    40   ar
     9    30    29   ar
    10    30    26   ar
    11    40    46    1
    12    40    39   ar
    13    38    29    1
    14    38    39   ar
    15    46    47    1
    16    47    48    1
    17    47    49    1
    18    29    28   ar
    19    11    10    1
    20    39    45    1
    21    10     9    1
    22    10    12    1
    23     9     3    1
    24     6     1    1
    25     7     8    3
    26     8     2    1
    27     1     2   ar
    28     1     5   ar
    29     2     3   ar
    30     3     4   ar
    31    23    22    1
    32     4     5   ar
    33     4    14    1
    34    22    21    1
    35    22    24    1
    36    19    20    3
    37    21    16    1
    38    20    15    1
    39    14    15   ar
    40    14    18   ar
    41    15    16   ar
    42    16    17   ar
    43    18    17   ar
    44    17    26    1
    45    26    27   ar
    46    28    27   ar
    47    28    33    1
    48    45    44    3
    49    27    32    1
    50    33    34    1
    51    34    35    1
    52    34    36    1
    53    32    31    3
