@<TRIPOS>MOLECULE
mol_data/noopt/geoms/mol2/5dl5dl-5dl5dl.out
 50 53 0 0 0
SMALL
GASTEIGER

@<TRIPOS>ATOM
      1 C          -2.0792   -1.7080   -0.0002 C.ar    1  LIG1       -0.0027
      2 C          -0.7020   -1.7080   -0.0002 C.ar    1  LIG1        0.1009
      3 C          -0.1766   -0.3757   -0.0002 C.ar    1  LIG1        0.1526
      4 C          -1.1831    0.5643    0.0006 C.ar    1  LIG1        0.0702
      5 S          -2.6937   -0.1528    0.0006 S.2     1  LIG1       -0.0910
      6 H          -2.8374   -2.7640   -0.0008 H       1  LIG1        0.0708
      7 N           0.7138   -3.7033   -0.0006 N.1     1  LIG1       -0.1907
      8 C           0.0503   -2.7682   -0.0004 C.1     1  LIG1        0.1034
      9 O           1.0969   -0.1143   -0.0009 O.3     1  LIG1       -0.4927
     10 C           1.8355   -1.3388   -0.0012 C.3     1  LIG1        0.0789
     11 H           2.8835   -1.1232   -0.0020 H       1  LIG1        0.0660
     12 H           1.5884   -1.9046    0.8727 H       1  LIG1        0.0660
     13 H           1.5872   -1.9049   -0.8746 H       1  LIG1        0.0660
     14 C          -1.0166    1.8536    0.0014 C.ar    1  LIG1        0.0511
     15 C           0.1958    2.5069    0.0015 C.ar    1  LIG1        0.1093
     16 C           0.0263    3.9290    0.0017 C.ar    1  LIG1        0.1533
     17 C          -1.3057    4.2790    0.0026 C.ar    1  LIG1        0.0708
     18 S          -2.2953    2.9311    0.0023 S.2     1  LIG1       -0.0820
     19 N           2.3887    1.4221    0.0010 N.1     1  LIG1       -0.1907
     20 C           1.3610    1.9305    0.0013 C.1     1  LIG1        0.1040
     21 O           1.0233    4.7633    0.0012 O.3     1  LIG1       -0.4926
     22 C           2.2544    4.0357    0.0009 C.3     1  LIG1        0.0789
     23 H           3.0747    4.7226    0.0003 H       1  LIG1        0.0660
     24 H           2.3052    3.4203    0.8748 H       1  LIG1        0.0660
     25 H           2.3044    3.4196   -0.8725 H       1  LIG1        0.0660
     26 C          -1.7708    5.4930    0.0035 C.ar    1  LIG1        0.0511
     27 C          -1.0134    6.6433    0.0038 C.ar    1  LIG1        0.1093
     28 C          -1.8373    7.8147    0.0042 C.ar    1  LIG1        0.1533
     29 C          -3.1759    7.4910    0.0050 C.ar    1  LIG1        0.0707
     30 S          -3.4076    5.8350    0.0046 S.2     1  LIG1       -0.0820
     31 N           1.4317    6.7286    0.0032 N.1     1  LIG1       -0.1907
     32 C           0.2858    6.6886    0.0035 C.1     1  LIG1        0.1040
     33 O          -1.3553    9.0221    0.0038 O.3     1  LIG1       -0.4926
     34 C           0.0736    8.9657    0.0035 C.3     1  LIG1        0.0789
     35 H           0.4699    9.9596    0.0030 H       1  LIG1        0.0660
     36 H           0.4102    8.4479    0.8774 H       1  LIG1        0.0660
     37 H           0.4099    8.4472   -0.8699 H       1  LIG1        0.0660
     38 C          -4.1612    8.3391    0.0062 C.ar    1  LIG1        0.0505
     39 C          -4.0402    9.7108    0.0254 C.ar    1  LIG1        0.1086
     40 C          -5.3212   10.3513    0.0201 C.ar    1  LIG1        0.1450
     41 C          -6.3459    9.4314   -0.0022 C.ar    1  LIG1        0.0193
     42 S          -5.7642    7.8638   -0.0165 S.2     1  LIG1       -0.0910
     43 H          -7.6155    9.7107   -0.0114 H       1  LIG1        0.0731
     44 N          -1.9284   10.9456    0.0639 N.1     1  LIG1       -0.1907
     45 C          -2.9181   10.3669    0.0458 C.1     1  LIG1        0.1040
     46 O          -5.4697   11.6427    0.0347 O.3     1  LIG1       -0.4933
     47 C          -4.1851   12.2709    0.0400 C.3     1  LIG1        0.0789
     48 H          -4.3078   13.3338    0.0518 H       1  LIG1        0.0660
     49 H          -3.6420   11.9649    0.9097 H       1  LIG1        0.0660
     50 H          -3.6442   11.9841   -0.8375 H       1  LIG1        0.0660
@<TRIPOS>BOND
     1    13    10    1
     2    25    22    1
     3    37    34    1
     4    50    47    1
     5    42    41   ar
     6    42    38   ar
     7    43    41    1
     8    41    40   ar
     9    11    10    1
    10    10     9    1
    11    10    12    1
    12     9     3    1
    13     6     1    1
    14     7     8    3
    15     8     2    1
    16     1     2   ar
    17     1     5   ar
    18     2     3   ar
    19     3     4   ar
    20    23    22    1
    21     4     5   ar
    22     4    14    1
    23    22    21    1
    24    22    24    1
    25    19    20    3
    26    21    16    1
    27    20    15    1
    28    14    15   ar
    29    14    18   ar
    30    15    16   ar
    31    16    17   ar
    32    18    17   ar
    33    17    26    1
    34    35    34    1
    35    31    32    3
    36    32    27    1
    37    34    33    1
    38    34    36    1
    39    26    27   ar
    40    26    30   ar
    41    33    28    1
    42    27    28   ar
    43    28    29   ar
    44    30    29   ar
    45    29    38    1
    46    38    39   ar
    47    40    39   ar
    48    40    46    1
    49    39    45    1
    50    46    47    1
    51    47    48    1
    52    47    49    1
    53    45    44    3
