@<TRIPOS>MOLECULE
mol_data/noopt/geoms/mol2/5dl5dl5dl.out
 38 40 0 0 0
SMALL
GASTEIGER

@<TRIPOS>ATOM
      1 C          -2.0792   -1.7080   -0.0002 C.ar    1  LIG1       -0.0027
      2 C          -0.7020   -1.7080   -0.0002 C.ar    1  LIG1        0.1009
      3 C          -0.1766   -0.3757   -0.0002 C.ar    1  LIG1        0.1526
      4 C          -1.1831    0.5643    0.0006 C.ar    1  LIG1        0.0702
      5 S          -2.6937   -0.1528    0.0006 S.2     1  LIG1       -0.0910
      6 H          -2.8374   -2.7640   -0.0008 H       1  LIG1        0.0708
      7 N           0.7138   -3.7033   -0.0006 N.1     1  LIG1       -0.1907
      8 C           0.0503   -2.7682   -0.0004 C.1     1  LIG1        0.1034
      9 O           1.0969   -0.1143   -0.0009 O.3     1  LIG1       -0.4927
     10 C           1.8355   -1.3388   -0.0012 C.3     1  LIG1        0.0789
     11 H           2.8835   -1.1232   -0.0020 H       1  LIG1        0.0660
     12 H           1.5884   -1.9046    0.8727 H       1  LIG1        0.0660
     13 H           1.5872   -1.9049   -0.8746 H       1  LIG1        0.0660
     14 C          -1.0166    1.8536    0.0014 C.ar    1  LIG1        0.0511
     15 C           0.1956    2.5069    0.0205 C.ar    1  LIG1        0.1093
     16 C           0.0262    3.9290    0.0147 C.ar    1  LIG1        0.1533
     17 C          -1.3056    4.2790   -0.0075 C.ar    1  LIG1        0.0707
     18 S          -2.2951    2.9311   -0.0215 S.2     1  LIG1       -0.0820
     19 N           2.3882    1.4221    0.0591 N.1     1  LIG1       -0.1907
     20 C           1.3607    1.9305    0.0410 C.1     1  LIG1        0.1040
     21 O           1.0231    4.7633    0.0291 O.3     1  LIG1       -0.4926
     22 C           2.2542    4.0357    0.0343 C.3     1  LIG1        0.0789
     23 H           3.0745    4.7227    0.0460 H       1  LIG1        0.0660
     24 H           2.2974    3.4139    0.9041 H       1  LIG1        0.0660
     25 H           2.3120    3.4261   -0.8431 H       1  LIG1        0.0660
     26 C          -1.7706    5.4930   -0.0170 C.ar    1  LIG1        0.0505
     27 C          -1.0132    6.6432   -0.0232 C.ar    1  LIG1        0.1086
     28 C          -1.8369    7.8147   -0.0340 C.ar    1  LIG1        0.1450
     29 C          -3.1756    7.4910   -0.0345 C.ar    1  LIG1        0.0193
     30 S          -3.4074    5.8350   -0.0232 S.2     1  LIG1       -0.0910
     31 H          -4.1608    8.3391   -0.0426 H       1  LIG1        0.0731
     32 N           1.4319    6.7284   -0.0174 N.1     1  LIG1       -0.1907
     33 C           0.2860    6.6885   -0.0202 C.1     1  LIG1        0.1040
     34 O          -1.3549    9.0220   -0.0421 O.3     1  LIG1       -0.4933
     35 C           0.0740    8.9654   -0.0451 C.3     1  LIG1        0.0789
     36 H           0.4703    9.9593   -0.0519 H       1  LIG1        0.0660
     37 H           0.4125    8.4525    0.8309 H       1  LIG1        0.0660
     38 H           0.4084    8.4421   -0.9164 H       1  LIG1        0.0660
@<TRIPOS>BOND
     1    38    35    1
     2    13    10    1
     3    25    22    1
     4    36    35    1
     5    35    34    1
     6    35    37    1
     7    31    29    1
     8    34    28    1
     9    29    28   ar
    10    29    30   ar
    11    28    27   ar
    12    27    33    1
    13    27    26   ar
    14    30    26   ar
    15    18    17   ar
    16    18    14   ar
    17    33    32    3
    18    26    17    1
    19    17    16   ar
    20    11    10    1
    21    10     9    1
    22    10    12    1
    23     9     3    1
    24     6     1    1
    25     7     8    3
    26     8     2    1
    27     1     2   ar
    28     1     5   ar
    29     3     2   ar
    30     3     4   ar
    31     5     4   ar
    32     4    14    1
    33    14    15   ar
    34    16    15   ar
    35    16    21    1
    36    15    20    1
    37    21    22    1
    38    22    23    1
    39    22    24    1
    40    20    19    3
