@<TRIPOS>MOLECULE
mol_data/noopt/geoms/mol2/5ea5ea-5ea5ea-.out
 38 41 0 0 0
SMALL
GASTEIGER

@<TRIPOS>ATOM
      1 C          -2.0792   -1.7080   -0.0002 C.ar    1  LIG1       -0.0083
      2 C          -0.7020   -1.7080   -0.0002 C.ar    1  LIG1        0.0323
      3 C          -0.1766   -0.3757   -0.0002 C.ar    1  LIG1       -0.0310
      4 C          -1.1831    0.5643    0.0006 C.ar    1  LIG1        0.0283
      5 S          -2.6937   -0.1528    0.0006 S.2     1  LIG1       -0.0949
      6 H          -2.8374   -2.7640   -0.0008 H       1  LIG1        0.0706
      7 C           0.0503   -2.7682   -0.0004 C.1     1  LIG1       -0.0691
      8 C           0.7454   -3.7478   -0.0006 C.1     1  LIG1       -0.1139
      9 H           1.3646   -4.6205   -0.0007 H       1  LIG1        0.1232
     10 H           1.0969   -0.1143   -0.0009 H       1  LIG1        0.0641
     11 C          -1.0166    1.8536    0.0014 C.ar    1  LIG1        0.0419
     12 C           0.1958    2.5069    0.0015 C.ar    1  LIG1        0.0405
     13 C           0.0263    3.9290    0.0017 C.ar    1  LIG1       -0.0304
     14 C          -1.3057    4.2790    0.0026 C.ar    1  LIG1        0.0289
     15 S          -2.2953    2.9311    0.0023 S.2     1  LIG1       -0.0859
     16 C           1.3610    1.9305    0.0013 C.1     1  LIG1       -0.0685
     17 C           2.4376    1.3979    0.0010 C.1     1  LIG1       -0.1139
     18 H           3.3967    0.9234    0.0008 H       1  LIG1        0.1232
     19 H           1.0233    4.7632    0.0012 H       1  LIG1        0.0641
     20 C          -1.7708    5.4930    0.0035 C.ar    1  LIG1        0.0419
     21 C          -1.0134    6.6433    0.0038 C.ar    1  LIG1        0.0405
     22 C          -1.8373    7.8147    0.0042 C.ar    1  LIG1       -0.0304
     23 C          -3.1759    7.4910    0.0050 C.ar    1  LIG1        0.0289
     24 S          -3.4076    5.8350    0.0046 S.2     1  LIG1       -0.0859
     25 C           0.2858    6.6886    0.0035 C.1     1  LIG1       -0.0685
     26 C           1.4863    6.7305    0.0032 C.1     1  LIG1       -0.1139
     27 H           2.5556    6.7678    0.0029 H       1  LIG1        0.1232
     28 H          -1.3553    9.0221    0.0038 H       1  LIG1        0.0641
     29 C          -4.1612    8.3391    0.0062 C.ar    1  LIG1        0.0413
     30 C          -4.0401    9.7109    0.0065 C.ar    1  LIG1        0.0399
     31 C          -5.3211   10.3514    0.0071 C.ar    1  LIG1       -0.0387
     32 C          -6.3459    9.4314    0.0079 C.ar    1  LIG1       -0.0225
     33 S          -5.7643    7.8636    0.0073 S.2     1  LIG1       -0.0949
     34 H          -7.6156    9.7105    0.0092 H       1  LIG1        0.0694
     35 C          -2.9179   10.3672    0.0061 C.1     1  LIG1       -0.0685
     36 C          -1.8810   10.9735    0.0058 C.1     1  LIG1       -0.1139
     37 H          -0.9573   11.5137    0.0055 H       1  LIG1        0.1232
     38 H          -5.4696   11.6429    0.0067 H       1  LIG1        0.0635
@<TRIPOS>BOND
     1    10     3    1
     2     6     1    1
     3     9     8    1
     4     8     7    3
     5     7     2    1
     6     2     3   ar
     7     2     1   ar
     8     3     4   ar
     9     1     5   ar
    10     4     5   ar
    11     4    11    1
    12    18    17    1
    13    17    16    3
    14    19    13    1
    15    16    12    1
    16    11    12   ar
    17    11    15   ar
    18    12    13   ar
    19    13    14   ar
    20    15    14   ar
    21    14    20    1
    22    27    26    1
    23    26    25    3
    24    25    21    1
    25    20    21   ar
    26    20    24   ar
    27    28    22    1
    28    21    22   ar
    29    22    23   ar
    30    24    23   ar
    31    23    29    1
    32    37    36    1
    33    36    35    3
    34    35    30    1
    35    29    30   ar
    36    29    33   ar
    37    30    31   ar
    38    38    31    1
    39    31    32   ar
    40    33    32   ar
    41    32    34    1
