@<TRIPOS>MOLECULE
mol_data/noopt/geoms/mol2/5ea5ea5ea5ea.out
 38 41 0 0 0
SMALL
GASTEIGER

@<TRIPOS>ATOM
      1 C          -2.0792   -1.7080   -0.0002 C.ar    1  LIG1       -0.0083
      2 C          -0.7020   -1.7080   -0.0002 C.ar    1  LIG1        0.0323
      3 C          -0.1766   -0.3757   -0.0002 C.ar    1  LIG1       -0.0310
      4 C          -1.1831    0.5643    0.0006 C.ar    1  LIG1        0.0283
      5 S          -2.6937   -0.1528    0.0006 S.2     1  LIG1       -0.0949
      6 H          -2.8374   -2.7640   -0.0008 H       1  LIG1        0.0706
      7 C           0.0503   -2.7682   -0.0004 C.1     1  LIG1       -0.0691
      8 C           0.7454   -3.7478   -0.0006 C.1     1  LIG1       -0.1139
      9 H           1.3646   -4.6205   -0.0007 H       1  LIG1        0.1232
     10 H           1.0969   -0.1143   -0.0009 H       1  LIG1        0.0641
     11 C          -1.0166    1.8536    0.0014 C.ar    1  LIG1        0.0419
     12 C           0.1956    2.5069    0.0205 C.ar    1  LIG1        0.0405
     13 C           0.0262    3.9290    0.0147 C.ar    1  LIG1       -0.0304
     14 C          -1.3056    4.2790   -0.0075 C.ar    1  LIG1        0.0289
     15 S          -2.2951    2.9311   -0.0215 S.2     1  LIG1       -0.0859
     16 C           1.3607    1.9305    0.0410 C.1     1  LIG1       -0.0685
     17 C           2.4372    1.3979    0.0600 C.1     1  LIG1       -0.1139
     18 H           3.3961    0.9235    0.0769 H       1  LIG1        0.1232
     19 H           1.0231    4.7632    0.0291 H       1  LIG1        0.0641
     20 C          -1.7706    5.4930   -0.0170 C.ar    1  LIG1        0.0419
     21 C          -1.0132    6.6432   -0.0232 C.ar    1  LIG1        0.0405
     22 C          -1.8369    7.8147   -0.0340 C.ar    1  LIG1       -0.0304
     23 C          -3.1756    7.4910   -0.0345 C.ar    1  LIG1        0.0289
     24 S          -3.4074    5.8350   -0.0232 S.2     1  LIG1       -0.0859
     25 C           0.2860    6.6885   -0.0202 C.1     1  LIG1       -0.0685
     26 C           1.4865    6.7303   -0.0173 C.1     1  LIG1       -0.1139
     27 H           2.5558    6.7675   -0.0148 H       1  LIG1        0.1232
     28 H          -1.3549    9.0220   -0.0421 H       1  LIG1        0.0641
     29 C          -4.1608    8.3391   -0.0426 C.ar    1  LIG1        0.0413
     30 C          -4.0399    9.7109   -0.0290 C.ar    1  LIG1        0.0399
     31 C          -5.3207   10.3514   -0.0442 C.ar    1  LIG1       -0.0387
     32 C          -6.3454    9.4315   -0.0677 C.ar    1  LIG1       -0.0225
     33 S          -5.7637    7.8638   -0.0716 S.2     1  LIG1       -0.0949
     34 H          -7.6149    9.7107   -0.0849 H       1  LIG1        0.0694
     35 C          -2.9179   10.3671   -0.0056 C.1     1  LIG1       -0.0685
     36 C          -1.8811   10.9733    0.0160 C.1     1  LIG1       -0.1139
     37 H          -0.9576   11.5134    0.0353 H       1  LIG1        0.1232
     38 H          -5.4693   11.6429   -0.0363 H       1  LIG1        0.0635
@<TRIPOS>BOND
     1    34    32    1
     2    33    32   ar
     3    33    29   ar
     4    32    31   ar
     5    31    38    1
     6    31    30   ar
     7    29    23    1
     8    29    30   ar
     9    28    22    1
    10    23    22   ar
    11    23    24   ar
    12    22    21   ar
    13    30    35    1
    14    21    25    1
    15    21    20   ar
    16    24    20   ar
    17    15    14   ar
    18    15    11   ar
    19    25    26    3
    20    26    27    1
    21    20    14    1
    22    14    13   ar
    23    35    36    3
    24    10     3    1
    25     6     1    1
    26     9     8    1
    27     8     7    3
    28     7     2    1
    29     2     3   ar
    30     2     1   ar
    31     3     4   ar
    32     1     5   ar
    33     5     4   ar
    34     4    11    1
    35    11    12   ar
    36    13    12   ar
    37    13    19    1
    38    36    37    1
    39    12    16    1
    40    16    17    3
    41    17    18    1
