@<TRIPOS>MOLECULE
mol_data/noopt/geoms/mol2/5ea5ea5ea-.out
 29 31 0 0 0
SMALL
GASTEIGER

@<TRIPOS>ATOM
      1 C          -2.0792   -1.7080   -0.0002 C.ar    1  LIG1       -0.0083
      2 C          -0.7020   -1.7080   -0.0002 C.ar    1  LIG1        0.0323
      3 C          -0.1766   -0.3757   -0.0002 C.ar    1  LIG1       -0.0310
      4 C          -1.1831    0.5643    0.0006 C.ar    1  LIG1        0.0283
      5 S          -2.6937   -0.1528    0.0006 S.2     1  LIG1       -0.0949
      6 H          -2.8374   -2.7640   -0.0008 H       1  LIG1        0.0706
      7 C           0.0503   -2.7682   -0.0004 C.1     1  LIG1       -0.0691
      8 C           0.7454   -3.7478   -0.0006 C.1     1  LIG1       -0.1139
      9 H           1.3646   -4.6205   -0.0007 H       1  LIG1        0.1232
     10 H           1.0969   -0.1143   -0.0009 H       1  LIG1        0.0641
     11 C          -1.0166    1.8536    0.0014 C.ar    1  LIG1        0.0419
     12 C           0.1956    2.5069    0.0205 C.ar    1  LIG1        0.0405
     13 C           0.0262    3.9290    0.0147 C.ar    1  LIG1       -0.0304
     14 C          -1.3056    4.2790   -0.0075 C.ar    1  LIG1        0.0289
     15 S          -2.2951    2.9311   -0.0215 S.2     1  LIG1       -0.0859
     16 C           1.3607    1.9305    0.0410 C.1     1  LIG1       -0.0685
     17 C           2.4372    1.3979    0.0600 C.1     1  LIG1       -0.1139
     18 H           3.3961    0.9235    0.0769 H       1  LIG1        0.1232
     19 H           1.0231    4.7632    0.0291 H       1  LIG1        0.0641
     20 C          -1.7706    5.4930   -0.0170 C.ar    1  LIG1        0.0413
     21 C          -1.0134    6.6433   -0.0043 C.ar    1  LIG1        0.0399
     22 C          -1.8371    7.8147   -0.0210 C.ar    1  LIG1       -0.0387
     23 C          -3.1754    7.4910   -0.0446 C.ar    1  LIG1       -0.0225
     24 S          -3.4072    5.8350   -0.0470 S.2     1  LIG1       -0.0949
     25 H          -4.1606    8.3390   -0.0631 H       1  LIG1        0.0694
     26 C           0.2856    6.6886    0.0196 C.1     1  LIG1       -0.0685
     27 C           1.4859    6.7305    0.0416 C.1     1  LIG1       -0.1139
     28 H           2.5551    6.7678    0.0613 H       1  LIG1        0.1232
     29 H          -1.3552    9.0221   -0.0141 H       1  LIG1        0.0635
@<TRIPOS>BOND
     1    25    23    1
     2    24    23   ar
     3    24    20   ar
     4    23    22   ar
     5    15    14   ar
     6    15    11   ar
     7    22    29    1
     8    22    21   ar
     9    20    14    1
    10    20    21   ar
    11    14    13   ar
    12    21    26    1
    13    10     3    1
    14     6     1    1
    15     9     8    1
    16     8     7    3
    17     7     2    1
    18     1     2   ar
    19     1     5   ar
    20     2     3   ar
    21     3     4   ar
    22     5     4   ar
    23     4    11    1
    24    11    12   ar
    25    13    12   ar
    26    13    19    1
    27    26    27    3
    28    12    16    1
    29    16    17    3
    30    27    28    1
    31    17    18    1
