@<TRIPOS>MOLECULE
mol_data/noopt/geoms/mol2/5ea5ea5ea-5ea.out
 38 41 0 0 0
SMALL
GASTEIGER

@<TRIPOS>ATOM
      1 C          -2.0792   -1.7080   -0.0002 C.ar    1  LIG1       -0.0083
      2 C          -0.7020   -1.7080   -0.0002 C.ar    1  LIG1        0.0323
      3 C          -0.1766   -0.3757   -0.0002 C.ar    1  LIG1       -0.0310
      4 C          -1.1831    0.5643    0.0006 C.ar    1  LIG1        0.0283
      5 S          -2.6937   -0.1528    0.0006 S.2     1  LIG1       -0.0949
      6 H          -2.8374   -2.7640   -0.0008 H       1  LIG1        0.0706
      7 C           0.0503   -2.7682   -0.0004 C.1     1  LIG1       -0.0691
      8 C           0.7454   -3.7478   -0.0006 C.1     1  LIG1       -0.1139
      9 H           1.3646   -4.6205   -0.0007 H       1  LIG1        0.1232
     10 H           1.0969   -0.1143   -0.0009 H       1  LIG1        0.0641
     11 C          -1.0166    1.8536    0.0014 C.ar    1  LIG1        0.0419
     12 C           0.1956    2.5069    0.0205 C.ar    1  LIG1        0.0405
     13 C           0.0262    3.9290    0.0147 C.ar    1  LIG1       -0.0304
     14 C          -1.3056    4.2790   -0.0075 C.ar    1  LIG1        0.0289
     15 S          -2.2951    2.9311   -0.0215 S.2     1  LIG1       -0.0859
     16 C           1.3607    1.9305    0.0410 C.1     1  LIG1       -0.0685
     17 C           2.4372    1.3979    0.0600 C.1     1  LIG1       -0.1139
     18 H           3.3961    0.9235    0.0769 H       1  LIG1        0.1232
     19 H           1.0231    4.7632    0.0291 H       1  LIG1        0.0641
     20 C          -1.7706    5.4930   -0.0170 C.ar    1  LIG1        0.0419
     21 C          -1.0134    6.6433   -0.0043 C.ar    1  LIG1        0.0405
     22 C          -1.8371    7.8147   -0.0210 C.ar    1  LIG1       -0.0304
     23 C          -3.1754    7.4910   -0.0446 C.ar    1  LIG1        0.0289
     24 S          -3.4072    5.8350   -0.0470 S.2     1  LIG1       -0.0859
     25 C           0.2856    6.6886    0.0196 C.1     1  LIG1       -0.0685
     26 C           1.4859    6.7305    0.0416 C.1     1  LIG1       -0.1139
     27 H           2.5551    6.7678    0.0613 H       1  LIG1        0.1232
     28 H          -1.3552    9.0221   -0.0141 H       1  LIG1        0.0641
     29 C          -4.1606    8.3390   -0.0631 C.ar    1  LIG1        0.0413
     30 C          -4.0397    9.7109   -0.0560 C.ar    1  LIG1        0.0399
     31 C          -5.3204   10.3513   -0.0823 C.ar    1  LIG1       -0.0387
     32 C          -6.3449    9.4313   -0.1072 C.ar    1  LIG1       -0.0225
     33 S          -5.7633    7.8636   -0.0994 S.2     1  LIG1       -0.0949
     34 H          -7.6143    9.7105   -0.1337 H       1  LIG1        0.0694
     35 C          -2.9178   10.3671   -0.0292 C.1     1  LIG1       -0.0685
     36 C          -1.8812   10.9735   -0.0044 C.1     1  LIG1       -0.1139
     37 H          -0.9578   11.5136    0.0176 H       1  LIG1        0.1232
     38 H          -5.4689   11.6428   -0.0821 H       1  LIG1        0.0635
@<TRIPOS>BOND
     1    34    32    1
     2    32    33   ar
     3    32    31   ar
     4    33    29   ar
     5    31    38    1
     6    31    30   ar
     7    29    30   ar
     8    29    23    1
     9    30    35    1
    10    24    23   ar
    11    24    20   ar
    12    23    22   ar
    13    35    36    3
    14    15    14   ar
    15    15    11   ar
    16    22    28    1
    17    22    21   ar
    18    20    14    1
    19    20    21   ar
    20    14    13   ar
    21    36    37    1
    22    21    25    1
    23    10     3    1
    24     6     1    1
    25     9     8    1
    26     8     7    3
    27     7     2    1
    28     2     3   ar
    29     2     1   ar
    30     3     4   ar
    31     1     5   ar
    32     5     4   ar
    33     4    11    1
    34    11    12   ar
    35    13    12   ar
    36    13    19    1
    37    25    26    3
    38    12    16    1
    39    16    17    3
    40    26    27    1
    41    17    18    1
