@<TRIPOS>MOLECULE
mol_data/noopt/geoms/mol2/5ea5ea-5ea-5ea.out
 38 41 0 0 0
SMALL
GASTEIGER

@<TRIPOS>ATOM
      1 C          -2.0792   -1.7080   -0.0002 C.ar    1  LIG1       -0.0083
      2 C          -0.7020   -1.7080   -0.0002 C.ar    1  LIG1        0.0323
      3 C          -0.1766   -0.3757   -0.0002 C.ar    1  LIG1       -0.0310
      4 C          -1.1831    0.5643    0.0006 C.ar    1  LIG1        0.0283
      5 S          -2.6937   -0.1528    0.0006 S.2     1  LIG1       -0.0949
      6 H          -2.8374   -2.7640   -0.0008 H       1  LIG1        0.0706
      7 C           0.0503   -2.7682   -0.0004 C.1     1  LIG1       -0.0691
      8 C           0.7454   -3.7478   -0.0006 C.1     1  LIG1       -0.1139
      9 H           1.3646   -4.6205   -0.0007 H       1  LIG1        0.1232
     10 H           1.0969   -0.1143   -0.0009 H       1  LIG1        0.0641
     11 C          -1.0166    1.8536    0.0014 C.ar    1  LIG1        0.0419
     12 C           0.1958    2.5069    0.0015 C.ar    1  LIG1        0.0405
     13 C           0.0263    3.9290    0.0017 C.ar    1  LIG1       -0.0304
     14 C          -1.3057    4.2790    0.0026 C.ar    1  LIG1        0.0289
     15 S          -2.2953    2.9311    0.0023 S.2     1  LIG1       -0.0859
     16 C           1.3610    1.9305    0.0013 C.1     1  LIG1       -0.0685
     17 C           2.4376    1.3979    0.0010 C.1     1  LIG1       -0.1139
     18 H           3.3967    0.9234    0.0008 H       1  LIG1        0.1232
     19 H           1.0233    4.7632    0.0012 H       1  LIG1        0.0641
     20 C          -1.7708    5.4930    0.0035 C.ar    1  LIG1        0.0419
     21 C          -1.0136    6.6432    0.0227 C.ar    1  LIG1        0.0405
     22 C          -1.8374    7.8147    0.0172 C.ar    1  LIG1       -0.0304
     23 C          -3.1758    7.4910   -0.0051 C.ar    1  LIG1        0.0289
     24 S          -3.4074    5.8351   -0.0192 S.2     1  LIG1       -0.0859
     25 C           0.2855    6.6885    0.0432 C.1     1  LIG1       -0.0685
     26 C           1.4858    6.7303    0.0621 C.1     1  LIG1       -0.1139
     27 H           2.5550    6.7675    0.0790 H       1  LIG1        0.1232
     28 H          -1.3555    9.0220    0.0317 H       1  LIG1        0.0641
     29 C          -4.1610    8.3391   -0.0144 C.ar    1  LIG1        0.0413
     30 C          -4.0401    9.7110   -0.0016 C.ar    1  LIG1        0.0399
     31 C          -5.3209   10.3515   -0.0181 C.ar    1  LIG1       -0.0387
     32 C          -6.3455    9.4316   -0.0417 C.ar    1  LIG1       -0.0225
     33 S          -5.7639    7.8638   -0.0443 S.2     1  LIG1       -0.0949
     34 H          -7.6151    9.7108   -0.0601 H       1  LIG1        0.0694
     35 C          -2.9181   10.3671    0.0222 C.1     1  LIG1       -0.0685
     36 C          -1.8813   10.9734    0.0443 C.1     1  LIG1       -0.1139
     37 H          -0.9578   11.5134    0.0639 H       1  LIG1        0.1232
     38 H          -5.4695   11.6429   -0.0111 H       1  LIG1        0.0635
@<TRIPOS>BOND
     1    34    32    1
     2    33    32   ar
     3    33    29   ar
     4    32    31   ar
     5    24    23   ar
     6    24    20   ar
     7    31    38    1
     8    31    30   ar
     9    29    23    1
    10    29    30   ar
    11    23    22   ar
    12    30    35    1
    13    10     3    1
    14     6     1    1
    15     9     8    1
    16     8     7    3
    17     7     2    1
    18     1     2   ar
    19     1     5   ar
    20     2     3   ar
    21     3     4   ar
    22     4     5   ar
    23     4    11    1
    24    18    17    1
    25    17    16    3
    26    19    13    1
    27    16    12    1
    28    11    12   ar
    29    11    15   ar
    30    12    13   ar
    31    13    14   ar
    32    15    14   ar
    33    14    20    1
    34    20    21   ar
    35    22    21   ar
    36    22    28    1
    37    35    36    3
    38    21    25    1
    39    25    26    3
    40    36    37    1
    41    26    27    1
