@<TRIPOS>MOLECULE
mol_data/noopt/geoms/mol2/5ea5ea.out
 20 21 0 0 0
SMALL
GASTEIGER

@<TRIPOS>ATOM
      1 C          -2.0792   -1.7080   -0.0002 C.ar    1  LIG1       -0.0083
      2 C          -0.7020   -1.7080   -0.0002 C.ar    1  LIG1        0.0323
      3 C          -0.1766   -0.3757   -0.0002 C.ar    1  LIG1       -0.0310
      4 C          -1.1831    0.5643    0.0006 C.ar    1  LIG1        0.0282
      5 S          -2.6937   -0.1528    0.0006 S.2     1  LIG1       -0.0949
      6 H          -2.8374   -2.7640   -0.0008 H       1  LIG1        0.0706
      7 C           0.0503   -2.7682   -0.0004 C.1     1  LIG1       -0.0691
      8 C           0.7454   -3.7478   -0.0006 C.1     1  LIG1       -0.1139
      9 H           1.3646   -4.6205   -0.0007 H       1  LIG1        0.1232
     10 H           1.0969   -0.1143   -0.0009 H       1  LIG1        0.0641
     11 C          -1.0166    1.8536    0.0014 C.ar    1  LIG1        0.0413
     12 C           0.1956    2.5069    0.0205 C.ar    1  LIG1        0.0399
     13 C           0.0262    3.9290    0.0147 C.ar    1  LIG1       -0.0387
     14 C          -1.3056    4.2790   -0.0075 C.ar    1  LIG1       -0.0225
     15 S          -2.2951    2.9311   -0.0215 S.2     1  LIG1       -0.0949
     16 H          -1.7706    5.4930   -0.0170 H       1  LIG1        0.0694
     17 C           1.3607    1.9305    0.0410 C.1     1  LIG1       -0.0685
     18 C           2.4372    1.3979    0.0600 C.1     1  LIG1       -0.1139
     19 H           3.3961    0.9235    0.0769 H       1  LIG1        0.1232
     20 H           1.0231    4.7632    0.0291 H       1  LIG1        0.0635
@<TRIPOS>BOND
     1    15    14   ar
     2    15    11   ar
     3    16    14    1
     4    14    13   ar
     5    10     3    1
     6     6     1    1
     7     9     8    1
     8     8     7    3
     9     7     2    1
    10     2     3   ar
    11     2     1   ar
    12     3     4   ar
    13     1     5   ar
    14     4     5   ar
    15     4    11    1
    16    11    12   ar
    17    13    12   ar
    18    13    20    1
    19    12    17    1
    20    17    18    3
    21    18    19    1
