@<TRIPOS>MOLECULE
mol_data/noopt/geoms/mol2/5ed5ed5ed.out
 32 36 0 0 0
SMALL
GASTEIGER

@<TRIPOS>ATOM
      1 C          -2.0792   -1.7080   -0.0002 C.ar    1  LIG1       -0.0080
      2 C          -0.7020   -1.7080   -0.0002 C.ar    1  LIG1        0.0377
      3 C          -0.1766   -0.3757   -0.0002 C.ar    1  LIG1        0.0134
      4 C          -1.1831    0.5643    0.0006 C.ar    1  LIG1        0.0337
      5 S          -2.6937   -0.1528    0.0006 S.2     1  LIG1       -0.0945
      6 H          -2.8374   -2.7640   -0.0008 H       1  LIG1        0.0706
      7 C           0.0503   -2.7682   -0.0004 C.1     1  LIG1       -0.0688
      8 C           0.7454   -3.7478   -0.0006 C.1     1  LIG1       -0.1139
      9 H           1.3646   -4.6205   -0.0007 H       1  LIG1        0.1232
     10 N           2.2200    0.1162   -0.0015 N.pl3   1  LIG1       -0.2335
     11 C           1.0969   -0.1143   -0.0009 C.3     1  LIG1        0.1396
     12 C          -1.0166    1.8536    0.0014 C.ar    1  LIG1        0.0420
     13 C           0.1956    2.5069    0.0205 C.ar    1  LIG1        0.0396
     14 C           0.0262    3.9290    0.0147 C.ar    1  LIG1        0.0134
     15 C          -1.3056    4.2790   -0.0075 C.ar    1  LIG1        0.0343
     16 S          -2.2951    2.9311   -0.0215 S.2     1  LIG1       -0.0856
     17 C           1.3607    1.9305    0.0410 C.1     1  LIG1       -0.0938
     18 C           2.4372    1.3979    0.0600 C.2     1  LIG1        0.0551
     19 H           3.3961    0.9235    0.0769 H       1  LIG1        0.0888
     20 N           1.9024    5.4990    0.0418 N.pl3   1  LIG1       -0.2335
     21 C           1.0231    4.7632    0.0291 C.3     1  LIG1        0.1396
     22 C          -1.7706    5.4930   -0.0170 C.ar    1  LIG1        0.0423
     23 C          -1.0132    6.6432   -0.0232 C.ar    1  LIG1        0.0509
     24 C          -1.8369    7.8147   -0.0340 C.ar    1  LIG1        0.0742
     25 C          -3.1756    7.4910   -0.0345 C.ar    1  LIG1       -0.0051
     26 S          -3.4074    5.8350   -0.0232 S.2     1  LIG1       -0.0936
     27 H          -4.1608    8.3391   -0.0426 H       1  LIG1        0.0707
     28 C           0.2860    6.6885   -0.0202 C.1     1  LIG1       -0.0929
     29 C           1.4865    6.7303   -0.0173 C.2     1  LIG1        0.0551
     30 H           2.5558    6.7675   -0.0148 H       1  LIG1        0.0888
     31 N          -0.9297   10.0868   -0.0492 N.1     1  LIG1       -0.1908
     32 C          -1.3549    9.0220   -0.0421 C.1     1  LIG1        0.1009
@<TRIPOS>BOND
     1    31    32    3
     2    27    25    1
     3    32    24    1
     4    25    24   ar
     5    25    26   ar
     6    24    23   ar
     7    23    28    2
     8    23    22   ar
     9    26    22   ar
    10    16    15   ar
    11    16    12   ar
    12    28    29    2
    13    29    30    1
    14    29    20    1
    15    22    15    1
    16    15    14   ar
    17    10    11    1
    18    10    18    1
    19    11     3    1
    20     6     1    1
    21     9     8    1
    22     8     7    3
    23     7     2    1
    24     1     2   ar
    25     1     5   ar
    26     3     2   ar
    27     3     4   ar
    28     5     4   ar
    29     4    12    1
    30    12    13   ar
    31    14    13   ar
    32    14    21    1
    33    13    17    2
    34    21    20    1
    35    17    18    2
    36    18    19    1
