@<TRIPOS>MOLECULE
mol_data/noopt/geoms/mol2/5ed5ed-5ed-5ed.out
 42 48 0 0 0
SMALL
GASTEIGER

@<TRIPOS>ATOM
      1 C          -2.0792   -1.7080   -0.0002 C.ar    1  LIG1       -0.0080
      2 C          -0.7020   -1.7080   -0.0002 C.ar    1  LIG1        0.0377
      3 C          -0.1766   -0.3757   -0.0002 C.ar    1  LIG1        0.0134
      4 C          -1.1831    0.5643    0.0006 C.ar    1  LIG1        0.0337
      5 S          -2.6937   -0.1528    0.0006 S.2     1  LIG1       -0.0945
      6 H          -2.8374   -2.7640   -0.0008 H       1  LIG1        0.0706
      7 C           0.0503   -2.7682   -0.0004 C.1     1  LIG1       -0.0688
      8 C           0.7454   -3.7478   -0.0006 C.1     1  LIG1       -0.1139
      9 H           1.3646   -4.6205   -0.0007 H       1  LIG1        0.1232
     10 N           2.2200    0.1162   -0.0015 N.pl3   1  LIG1       -0.2335
     11 C           1.0969   -0.1143   -0.0009 C.3     1  LIG1        0.1396
     12 C          -1.0166    1.8536    0.0014 C.ar    1  LIG1        0.0420
     13 C           0.1958    2.5069    0.0015 C.ar    1  LIG1        0.0396
     14 C           0.0263    3.9290    0.0017 C.ar    1  LIG1        0.0134
     15 C          -1.3057    4.2790    0.0026 C.ar    1  LIG1        0.0343
     16 S          -2.2953    2.9311    0.0023 S.2     1  LIG1       -0.0856
     17 C           1.3610    1.9305    0.0013 C.1     1  LIG1       -0.0938
     18 C           2.4376    1.3979    0.0010 C.2     1  LIG1        0.0551
     19 H           3.3967    0.9234    0.0008 H       1  LIG1        0.0888
     20 N           1.9027    5.4990    0.0007 N.pl3   1  LIG1       -0.2335
     21 C           1.0233    4.7632    0.0012 C.3     1  LIG1        0.1396
     22 C          -1.7708    5.4930    0.0035 C.ar    1  LIG1        0.0420
     23 C          -1.0136    6.6432    0.0227 C.ar    1  LIG1        0.0396
     24 C          -1.8374    7.8147    0.0172 C.ar    1  LIG1        0.0134
     25 C          -3.1758    7.4910   -0.0051 C.ar    1  LIG1        0.0343
     26 S          -3.4074    5.8351   -0.0192 S.2     1  LIG1       -0.0856
     27 C           0.2855    6.6885    0.0432 C.1     1  LIG1       -0.0938
     28 C           1.4858    6.7303    0.0621 C.2     1  LIG1        0.0551
     29 H           2.5550    6.7675    0.0790 H       1  LIG1        0.0888
     30 N          -0.9305   10.0869    0.0445 N.pl3   1  LIG1       -0.2335
     31 C          -1.3555    9.0220    0.0317 C.3     1  LIG1        0.1396
     32 C          -4.1610    8.3391   -0.0144 C.ar    1  LIG1        0.0423
     33 C          -4.0401    9.7110   -0.0016 C.ar    1  LIG1        0.0509
     34 C          -5.3209   10.3515   -0.0181 C.ar    1  LIG1        0.0742
     35 C          -6.3455    9.4316   -0.0417 C.ar    1  LIG1       -0.0051
     36 S          -5.7639    7.8638   -0.0443 S.2     1  LIG1       -0.0936
     37 H          -7.6151    9.7108   -0.0601 H       1  LIG1        0.0707
     38 C          -2.9181   10.3671    0.0222 C.1     1  LIG1       -0.0929
     39 C          -1.8813   10.9734    0.0443 C.2     1  LIG1        0.0551
     40 H          -0.9578   11.5134    0.0639 H       1  LIG1        0.0888
     41 N          -5.6005   12.7820   -0.0050 N.1     1  LIG1       -0.1908
     42 C          -5.4695   11.6429   -0.0111 C.1     1  LIG1        0.1009
@<TRIPOS>BOND
     1    37    35    1
     2    36    35   ar
     3    36    32   ar
     4    35    34   ar
     5    26    25   ar
     6    26    22   ar
     7    34    42    1
     8    34    33   ar
     9    32    25    1
    10    32    33   ar
    11    42    41    3
    12    25    24   ar
    13    33    38    2
    14    10    11    1
    15    10    18    1
    16    11     3    1
    17     6     1    1
    18     9     8    1
    19     8     7    3
    20     7     2    1
    21     1     2   ar
    22     1     5   ar
    23     2     3   ar
    24     3     4   ar
    25     4     5   ar
    26     4    12    1
    27    20    21    1
    28    20    28    1
    29    19    18    1
    30    18    17    2
    31    21    14    1
    32    17    13    2
    33    12    13   ar
    34    12    16   ar
    35    13    14   ar
    36    14    15   ar
    37    16    15   ar
    38    15    22    1
    39    22    23   ar
    40    24    23   ar
    41    24    31    1
    42    38    39    2
    43    23    27    2
    44    31    30    1
    45    27    28    2
    46    39    30    1
    47    39    40    1
    48    28    29    1
