@<TRIPOS>MOLECULE
mol_data/noopt/geoms/mol2/5ed5ed5ed5ed.out
 42 48 0 0 0
SMALL
GASTEIGER

@<TRIPOS>ATOM
      1 C          -2.0792   -1.7080   -0.0002 C.ar    1  LIG1       -0.0080
      2 C          -0.7020   -1.7080   -0.0002 C.ar    1  LIG1        0.0377
      3 C          -0.1766   -0.3757   -0.0002 C.ar    1  LIG1        0.0134
      4 C          -1.1831    0.5643    0.0006 C.ar    1  LIG1        0.0337
      5 S          -2.6937   -0.1528    0.0006 S.2     1  LIG1       -0.0945
      6 H          -2.8374   -2.7640   -0.0008 H       1  LIG1        0.0706
      7 C           0.0503   -2.7682   -0.0004 C.1     1  LIG1       -0.0688
      8 C           0.7454   -3.7478   -0.0006 C.1     1  LIG1       -0.1139
      9 H           1.3646   -4.6205   -0.0007 H       1  LIG1        0.1232
     10 N           2.2200    0.1162   -0.0015 N.pl3   1  LIG1       -0.2335
     11 C           1.0969   -0.1143   -0.0009 C.3     1  LIG1        0.1396
     12 C          -1.0166    1.8536    0.0014 C.ar    1  LIG1        0.0420
     13 C           0.1956    2.5069    0.0205 C.ar    1  LIG1        0.0396
     14 C           0.0262    3.9290    0.0147 C.ar    1  LIG1        0.0134
     15 C          -1.3056    4.2790   -0.0075 C.ar    1  LIG1        0.0343
     16 S          -2.2951    2.9311   -0.0215 S.2     1  LIG1       -0.0856
     17 C           1.3607    1.9305    0.0410 C.1     1  LIG1       -0.0938
     18 C           2.4372    1.3979    0.0600 C.2     1  LIG1        0.0551
     19 H           3.3961    0.9235    0.0769 H       1  LIG1        0.0888
     20 N           1.9024    5.4990    0.0418 N.pl3   1  LIG1       -0.2335
     21 C           1.0231    4.7632    0.0291 C.3     1  LIG1        0.1396
     22 C          -1.7706    5.4930   -0.0170 C.ar    1  LIG1        0.0420
     23 C          -1.0132    6.6432   -0.0232 C.ar    1  LIG1        0.0396
     24 C          -1.8369    7.8147   -0.0340 C.ar    1  LIG1        0.0134
     25 C          -3.1756    7.4910   -0.0345 C.ar    1  LIG1        0.0343
     26 S          -3.4074    5.8350   -0.0232 S.2     1  LIG1       -0.0856
     27 C           0.2860    6.6885   -0.0202 C.1     1  LIG1       -0.0938
     28 C           1.4865    6.7303   -0.0173 C.2     1  LIG1        0.0551
     29 H           2.5558    6.7675   -0.0148 H       1  LIG1        0.0888
     30 N          -0.9297   10.0868   -0.0492 N.pl3   1  LIG1       -0.2335
     31 C          -1.3549    9.0220   -0.0421 C.3     1  LIG1        0.1396
     32 C          -4.1608    8.3391   -0.0426 C.ar    1  LIG1        0.0423
     33 C          -4.0399    9.7109   -0.0290 C.ar    1  LIG1        0.0509
     34 C          -5.3207   10.3514   -0.0442 C.ar    1  LIG1        0.0742
     35 C          -6.3454    9.4315   -0.0677 C.ar    1  LIG1       -0.0051
     36 S          -5.7637    7.8638   -0.0716 S.2     1  LIG1       -0.0936
     37 H          -7.6149    9.7107   -0.0849 H       1  LIG1        0.0707
     38 C          -2.9179   10.3671   -0.0056 C.1     1  LIG1       -0.0929
     39 C          -1.8811   10.9733    0.0160 C.2     1  LIG1        0.0551
     40 H          -0.9576   11.5134    0.0353 H       1  LIG1        0.0888
     41 N          -5.6003   12.7820   -0.0294 N.1     1  LIG1       -0.1908
     42 C          -5.4693   11.6429   -0.0363 C.1     1  LIG1        0.1009
@<TRIPOS>BOND
     1    37    35    1
     2    36    35   ar
     3    36    32   ar
     4    35    34   ar
     5    30    31    1
     6    30    39    1
     7    34    42    1
     8    34    33   ar
     9    32    25    1
    10    32    33   ar
    11    31    24    1
    12    42    41    3
    13    25    24   ar
    14    25    26   ar
    15    24    23   ar
    16    33    38    2
    17    23    27    2
    18    23    22   ar
    19    26    22   ar
    20    16    15   ar
    21    16    12   ar
    22    27    28    2
    23    28    29    1
    24    28    20    1
    25    22    15    1
    26    15    14   ar
    27    38    39    2
    28    10    11    1
    29    10    18    1
    30    11     3    1
    31     6     1    1
    32     9     8    1
    33     8     7    3
    34     7     2    1
    35     2     3   ar
    36     2     1   ar
    37     3     4   ar
    38     1     5   ar
    39     5     4   ar
    40     4    12    1
    41    12    13   ar
    42    14    13   ar
    43    14    21    1
    44    39    40    1
    45    13    17    2
    46    21    20    1
    47    17    18    2
    48    18    19    1
