@<TRIPOS>MOLECULE
mol_data/noopt/geoms/mol2/5ed5ed5ed-.out
 32 36 0 0 0
SMALL
GASTEIGER

@<TRIPOS>ATOM
      1 C          -2.0792   -1.7080   -0.0002 C.ar    1  LIG1       -0.0080
      2 C          -0.7020   -1.7080   -0.0002 C.ar    1  LIG1        0.0377
      3 C          -0.1766   -0.3757   -0.0002 C.ar    1  LIG1        0.0134
      4 C          -1.1831    0.5643    0.0006 C.ar    1  LIG1        0.0337
      5 S          -2.6937   -0.1528    0.0006 S.2     1  LIG1       -0.0945
      6 H          -2.8374   -2.7640   -0.0008 H       1  LIG1        0.0706
      7 C           0.0503   -2.7682   -0.0004 C.1     1  LIG1       -0.0688
      8 C           0.7454   -3.7478   -0.0006 C.1     1  LIG1       -0.1139
      9 H           1.3646   -4.6205   -0.0007 H       1  LIG1        0.1232
     10 N           2.2200    0.1162   -0.0015 N.pl3   1  LIG1       -0.2335
     11 C           1.0969   -0.1143   -0.0009 C.3     1  LIG1        0.1396
     12 C          -1.0166    1.8536    0.0014 C.ar    1  LIG1        0.0420
     13 C           0.1956    2.5069    0.0205 C.ar    1  LIG1        0.0396
     14 C           0.0262    3.9290    0.0147 C.ar    1  LIG1        0.0134
     15 C          -1.3056    4.2790   -0.0075 C.ar    1  LIG1        0.0343
     16 S          -2.2951    2.9311   -0.0215 S.2     1  LIG1       -0.0856
     17 C           1.3607    1.9305    0.0410 C.1     1  LIG1       -0.0938
     18 C           2.4372    1.3979    0.0600 C.2     1  LIG1        0.0551
     19 H           3.3961    0.9235    0.0769 H       1  LIG1        0.0888
     20 N           1.9024    5.4990    0.0418 N.pl3   1  LIG1       -0.2335
     21 C           1.0231    4.7632    0.0291 C.3     1  LIG1        0.1396
     22 C          -1.7706    5.4930   -0.0170 C.ar    1  LIG1        0.0423
     23 C          -1.0134    6.6433   -0.0043 C.ar    1  LIG1        0.0509
     24 C          -1.8371    7.8147   -0.0210 C.ar    1  LIG1        0.0742
     25 C          -3.1754    7.4910   -0.0446 C.ar    1  LIG1       -0.0051
     26 S          -3.4072    5.8350   -0.0470 S.2     1  LIG1       -0.0936
     27 H          -4.1606    8.3390   -0.0631 H       1  LIG1        0.0707
     28 C           0.2856    6.6886    0.0196 C.1     1  LIG1       -0.0929
     29 C           1.4859    6.7305    0.0416 C.2     1  LIG1        0.0551
     30 H           2.5551    6.7678    0.0613 H       1  LIG1        0.0888
     31 N          -0.9301   10.0870   -0.0081 N.1     1  LIG1       -0.1908
     32 C          -1.3552    9.0221   -0.0141 C.1     1  LIG1        0.1009
@<TRIPOS>BOND
     1    27    25    1
     2    26    25   ar
     3    26    22   ar
     4    25    24   ar
     5    16    15   ar
     6    16    12   ar
     7    24    32    1
     8    24    23   ar
     9    22    15    1
    10    22    23   ar
    11    32    31    3
    12    15    14   ar
    13    23    28    2
    14    10    11    1
    15    10    18    1
    16    11     3    1
    17     6     1    1
    18     9     8    1
    19     8     7    3
    20     7     2    1
    21     1     2   ar
    22     1     5   ar
    23     3     2   ar
    24     3     4   ar
    25     5     4   ar
    26     4    12    1
    27    12    13   ar
    28    14    13   ar
    29    14    21    1
    30    28    29    2
    31    13    17    2
    32    21    20    1
    33    17    18    2
    34    29    20    1
    35    29    30    1
    36    18    19    1
