@<TRIPOS>MOLECULE
mol_data/noopt/geoms/mol2/5ed5ed.out
 22 24 0 0 0
SMALL
GASTEIGER

@<TRIPOS>ATOM
      1 C          -2.0792   -1.7080   -0.0002 C.ar    1  LIG1       -0.0080
      2 C          -0.7020   -1.7080   -0.0002 C.ar    1  LIG1        0.0377
      3 C          -0.1766   -0.3757   -0.0002 C.ar    1  LIG1        0.0134
      4 C          -1.1831    0.5643    0.0006 C.ar    1  LIG1        0.0337
      5 S          -2.6937   -0.1528    0.0006 S.2     1  LIG1       -0.0945
      6 H          -2.8374   -2.7640   -0.0008 H       1  LIG1        0.0706
      7 C           0.0503   -2.7682   -0.0004 C.1     1  LIG1       -0.0688
      8 C           0.7454   -3.7478   -0.0006 C.1     1  LIG1       -0.1139
      9 H           1.3646   -4.6205   -0.0007 H       1  LIG1        0.1232
     10 N           2.2200    0.1162   -0.0015 N.pl3   1  LIG1       -0.2335
     11 C           1.0969   -0.1143   -0.0009 C.3     1  LIG1        0.1396
     12 C          -1.0166    1.8536    0.0014 C.ar    1  LIG1        0.0423
     13 C           0.1956    2.5069    0.0205 C.ar    1  LIG1        0.0509
     14 C           0.0262    3.9290    0.0147 C.ar    1  LIG1        0.0742
     15 C          -1.3056    4.2790   -0.0075 C.ar    1  LIG1       -0.0051
     16 S          -2.2951    2.9311   -0.0215 S.2     1  LIG1       -0.0936
     17 H          -1.7706    5.4930   -0.0170 H       1  LIG1        0.0707
     18 C           1.3607    1.9305    0.0410 C.1     1  LIG1       -0.0929
     19 C           2.4372    1.3979    0.0600 C.2     1  LIG1        0.0551
     20 H           3.3961    0.9235    0.0769 H       1  LIG1        0.0888
     21 N           1.9024    5.4990    0.0418 N.1     1  LIG1       -0.1908
     22 C           1.0231    4.7632    0.0291 C.1     1  LIG1        0.1009
@<TRIPOS>BOND
     1    16    15   ar
     2    16    12   ar
     3    17    15    1
     4    15    14   ar
     5    10    11    1
     6    10    19    1
     7    11     3    1
     8     6     1    1
     9     9     8    1
    10     8     7    3
    11     7     2    1
    12     2     3   ar
    13     2     1   ar
    14     3     4   ar
    15     1     5   ar
    16     4     5   ar
    17     4    12    1
    18    12    13   ar
    19    14    13   ar
    20    14    22    1
    21    13    18    2
    22    22    21    3
    23    18    19    2
    24    19    20    1
