@<TRIPOS>MOLECULE
mol_data/noopt/geoms/mol2/5ed5ed5ed5ed-.out
 42 48 0 0 0
SMALL
GASTEIGER

@<TRIPOS>ATOM
      1 C          -2.0792   -1.7080   -0.0002 C.ar    1  LIG1       -0.0080
      2 C          -0.7020   -1.7080   -0.0002 C.ar    1  LIG1        0.0377
      3 C          -0.1766   -0.3757   -0.0002 C.ar    1  LIG1        0.0134
      4 C          -1.1831    0.5643    0.0006 C.ar    1  LIG1        0.0337
      5 S          -2.6937   -0.1528    0.0006 S.2     1  LIG1       -0.0945
      6 H          -2.8374   -2.7640   -0.0008 H       1  LIG1        0.0706
      7 C           0.0503   -2.7682   -0.0004 C.1     1  LIG1       -0.0688
      8 C           0.7454   -3.7478   -0.0006 C.1     1  LIG1       -0.1139
      9 H           1.3646   -4.6205   -0.0007 H       1  LIG1        0.1232
     10 N           2.2200    0.1162   -0.0015 N.pl3   1  LIG1       -0.2335
     11 C           1.0969   -0.1143   -0.0009 C.3     1  LIG1        0.1396
     12 C          -1.0166    1.8536    0.0014 C.ar    1  LIG1        0.0420
     13 C           0.1956    2.5069    0.0205 C.ar    1  LIG1        0.0396
     14 C           0.0262    3.9290    0.0147 C.ar    1  LIG1        0.0134
     15 C          -1.3056    4.2790   -0.0075 C.ar    1  LIG1        0.0343
     16 S          -2.2951    2.9311   -0.0215 S.2     1  LIG1       -0.0856
     17 C           1.3607    1.9305    0.0410 C.1     1  LIG1       -0.0938
     18 C           2.4372    1.3979    0.0600 C.2     1  LIG1        0.0551
     19 H           3.3961    0.9235    0.0769 H       1  LIG1        0.0888
     20 N           1.9024    5.4990    0.0418 N.pl3   1  LIG1       -0.2335
     21 C           1.0231    4.7632    0.0291 C.3     1  LIG1        0.1396
     22 C          -1.7706    5.4930   -0.0170 C.ar    1  LIG1        0.0420
     23 C          -1.0132    6.6432   -0.0232 C.ar    1  LIG1        0.0396
     24 C          -1.8369    7.8147   -0.0340 C.ar    1  LIG1        0.0134
     25 C          -3.1756    7.4910   -0.0345 C.ar    1  LIG1        0.0343
     26 S          -3.4074    5.8350   -0.0232 S.2     1  LIG1       -0.0856
     27 C           0.2860    6.6885   -0.0202 C.1     1  LIG1       -0.0938
     28 C           1.4865    6.7303   -0.0173 C.2     1  LIG1        0.0551
     29 H           2.5558    6.7675   -0.0148 H       1  LIG1        0.0888
     30 N          -0.9297   10.0868   -0.0492 N.pl3   1  LIG1       -0.2335
     31 C          -1.3549    9.0220   -0.0421 C.3     1  LIG1        0.1396
     32 C          -4.1608    8.3391   -0.0426 C.ar    1  LIG1        0.0423
     33 C          -4.0397    9.7110   -0.0479 C.ar    1  LIG1        0.0509
     34 C          -5.3206   10.3514   -0.0572 C.ar    1  LIG1        0.0742
     35 C          -6.3455    9.4315   -0.0576 C.ar    1  LIG1       -0.0051
     36 S          -5.7640    7.8637   -0.0478 S.2     1  LIG1       -0.0936
     37 H          -7.6151    9.7107   -0.0644 H       1  LIG1        0.0707
     38 C          -2.9175   10.3672   -0.0453 C.1     1  LIG1       -0.0929
     39 C          -1.8805   10.9735   -0.0429 C.2     1  LIG1        0.0551
     40 H          -0.9568   11.5136   -0.0408 H       1  LIG1        0.0888
     41 N          -5.5999   12.7820   -0.0705 N.1     1  LIG1       -0.1908
     42 C          -5.4690   11.6429   -0.0642 C.1     1  LIG1        0.1009
@<TRIPOS>BOND
     1    41    42    3
     2    37    35    1
     3    42    34    1
     4    35    34   ar
     5    35    36   ar
     6    34    33   ar
     7    30    39    1
     8    30    31    1
     9    33    38    2
    10    33    32   ar
    11    36    32   ar
    12    38    39    2
    13    39    40    1
    14    32    25    1
    15    31    24    1
    16    25    24   ar
    17    25    26   ar
    18    24    23   ar
    19    23    27    2
    20    23    22   ar
    21    26    22   ar
    22    16    15   ar
    23    16    12   ar
    24    27    28    2
    25    28    29    1
    26    28    20    1
    27    22    15    1
    28    15    14   ar
    29    10    11    1
    30    10    18    1
    31    11     3    1
    32     6     1    1
    33     9     8    1
    34     8     7    3
    35     7     2    1
    36     1     2   ar
    37     1     5   ar
    38     2     3   ar
    39     3     4   ar
    40     5     4   ar
    41     4    12    1
    42    12    13   ar
    43    14    13   ar
    44    14    21    1
    45    13    17    2
    46    21    20    1
    47    17    18    2
    48    18    19    1
