@<TRIPOS>MOLECULE
mol_data/noopt/geoms/mol2/5ed5ed-5ed5ed-.out
 42 48 0 0 0
SMALL
GASTEIGER

@<TRIPOS>ATOM
      1 C          -2.0792   -1.7080   -0.0002 C.ar    1  LIG1       -0.0080
      2 C          -0.7020   -1.7080   -0.0002 C.ar    1  LIG1        0.0377
      3 C          -0.1766   -0.3757   -0.0002 C.ar    1  LIG1        0.0134
      4 C          -1.1831    0.5643    0.0006 C.ar    1  LIG1        0.0337
      5 S          -2.6937   -0.1528    0.0006 S.2     1  LIG1       -0.0945
      6 H          -2.8374   -2.7640   -0.0008 H       1  LIG1        0.0706
      7 C           0.0503   -2.7682   -0.0004 C.1     1  LIG1       -0.0688
      8 C           0.7454   -3.7478   -0.0006 C.1     1  LIG1       -0.1139
      9 H           1.3646   -4.6205   -0.0007 H       1  LIG1        0.1232
     10 N           2.2200    0.1162   -0.0015 N.pl3   1  LIG1       -0.2335
     11 C           1.0969   -0.1143   -0.0009 C.3     1  LIG1        0.1396
     12 C          -1.0166    1.8536    0.0014 C.ar    1  LIG1        0.0420
     13 C           0.1958    2.5069    0.0015 C.ar    1  LIG1        0.0396
     14 C           0.0263    3.9290    0.0017 C.ar    1  LIG1        0.0134
     15 C          -1.3057    4.2790    0.0026 C.ar    1  LIG1        0.0343
     16 S          -2.2953    2.9311    0.0023 S.2     1  LIG1       -0.0856
     17 C           1.3610    1.9305    0.0013 C.1     1  LIG1       -0.0938
     18 C           2.4376    1.3979    0.0010 C.2     1  LIG1        0.0551
     19 H           3.3967    0.9234    0.0008 H       1  LIG1        0.0888
     20 N           1.9027    5.4990    0.0007 N.pl3   1  LIG1       -0.2335
     21 C           1.0233    4.7632    0.0012 C.3     1  LIG1        0.1396
     22 C          -1.7708    5.4930    0.0035 C.ar    1  LIG1        0.0420
     23 C          -1.0134    6.6433    0.0038 C.ar    1  LIG1        0.0396
     24 C          -1.8373    7.8147    0.0042 C.ar    1  LIG1        0.0134
     25 C          -3.1759    7.4910    0.0050 C.ar    1  LIG1        0.0343
     26 S          -3.4076    5.8350    0.0046 S.2     1  LIG1       -0.0856
     27 C           0.2858    6.6886    0.0035 C.1     1  LIG1       -0.0938
     28 C           1.4863    6.7305    0.0032 C.2     1  LIG1        0.0551
     29 H           2.5556    6.7678    0.0029 H       1  LIG1        0.0888
     30 N          -0.9302   10.0870    0.0034 N.pl3   1  LIG1       -0.2335
     31 C          -1.3553    9.0221    0.0038 C.3     1  LIG1        0.1396
     32 C          -4.1612    8.3391    0.0062 C.ar    1  LIG1        0.0423
     33 C          -4.0401    9.7109    0.0065 C.ar    1  LIG1        0.0509
     34 C          -5.3211   10.3514    0.0071 C.ar    1  LIG1        0.0742
     35 C          -6.3459    9.4314    0.0079 C.ar    1  LIG1       -0.0051
     36 S          -5.7643    7.8636    0.0073 S.2     1  LIG1       -0.0936
     37 H          -7.6156    9.7105    0.0092 H       1  LIG1        0.0707
     38 C          -2.9179   10.3672    0.0061 C.1     1  LIG1       -0.0929
     39 C          -1.8810   10.9735    0.0058 C.2     1  LIG1        0.0551
     40 H          -0.9573   11.5137    0.0055 H       1  LIG1        0.0888
     41 N          -5.6006   12.7820    0.0065 N.1     1  LIG1       -0.1908
     42 C          -5.4696   11.6429    0.0067 C.1     1  LIG1        0.1009
@<TRIPOS>BOND
     1    10    11    1
     2    10    18    1
     3    11     3    1
     4     6     1    1
     5     9     8    1
     6     8     7    3
     7     7     2    1
     8     2     3   ar
     9     2     1   ar
    10     3     4   ar
    11     1     5   ar
    12     4     5   ar
    13     4    12    1
    14    20    21    1
    15    20    28    1
    16    19    18    1
    17    18    17    2
    18    21    14    1
    19    17    13    2
    20    12    13   ar
    21    12    16   ar
    22    13    14   ar
    23    14    15   ar
    24    16    15   ar
    25    15    22    1
    26    29    28    1
    27    28    27    2
    28    30    31    1
    29    30    39    1
    30    27    23    2
    31    22    23   ar
    32    22    26   ar
    33    31    24    1
    34    23    24   ar
    35    24    25   ar
    36    26    25   ar
    37    25    32    1
    38    40    39    1
    39    39    38    2
    40    38    33    2
    41    32    33   ar
    42    32    36   ar
    43    41    42    3
    44    33    34   ar
    45    42    34    1
    46    34    35   ar
    47    36    35   ar
    48    35    37    1
