@<TRIPOS>MOLECULE
mol_data/noopt/geoms/mol2/5ed5ed-5ed-.out
 32 36 0 0 0
SMALL
GASTEIGER

@<TRIPOS>ATOM
      1 C          -2.0792   -1.7080   -0.0002 C.ar    1  LIG1       -0.0080
      2 C          -0.7020   -1.7080   -0.0002 C.ar    1  LIG1        0.0377
      3 C          -0.1766   -0.3757   -0.0002 C.ar    1  LIG1        0.0134
      4 C          -1.1831    0.5643    0.0006 C.ar    1  LIG1        0.0337
      5 S          -2.6937   -0.1528    0.0006 S.2     1  LIG1       -0.0945
      6 H          -2.8374   -2.7640   -0.0008 H       1  LIG1        0.0706
      7 C           0.0503   -2.7682   -0.0004 C.1     1  LIG1       -0.0688
      8 C           0.7454   -3.7478   -0.0006 C.1     1  LIG1       -0.1139
      9 H           1.3646   -4.6205   -0.0007 H       1  LIG1        0.1232
     10 N           2.2200    0.1162   -0.0015 N.pl3   1  LIG1       -0.2335
     11 C           1.0969   -0.1143   -0.0009 C.3     1  LIG1        0.1396
     12 C          -1.0166    1.8536    0.0014 C.ar    1  LIG1        0.0420
     13 C           0.1958    2.5069    0.0015 C.ar    1  LIG1        0.0396
     14 C           0.0263    3.9290    0.0017 C.ar    1  LIG1        0.0134
     15 C          -1.3057    4.2790    0.0026 C.ar    1  LIG1        0.0343
     16 S          -2.2953    2.9311    0.0023 S.2     1  LIG1       -0.0856
     17 C           1.3610    1.9305    0.0013 C.1     1  LIG1       -0.0938
     18 C           2.4376    1.3979    0.0010 C.2     1  LIG1        0.0551
     19 H           3.3967    0.9234    0.0008 H       1  LIG1        0.0888
     20 N           1.9027    5.4990    0.0007 N.pl3   1  LIG1       -0.2335
     21 C           1.0233    4.7632    0.0012 C.3     1  LIG1        0.1396
     22 C          -1.7708    5.4930    0.0035 C.ar    1  LIG1        0.0423
     23 C          -1.0136    6.6432    0.0227 C.ar    1  LIG1        0.0509
     24 C          -1.8374    7.8147    0.0172 C.ar    1  LIG1        0.0742
     25 C          -3.1758    7.4910   -0.0051 C.ar    1  LIG1       -0.0051
     26 S          -3.4074    5.8351   -0.0192 S.2     1  LIG1       -0.0936
     27 H          -4.1610    8.3391   -0.0144 H       1  LIG1        0.0707
     28 C           0.2855    6.6885    0.0432 C.1     1  LIG1       -0.0929
     29 C           1.4858    6.7303    0.0621 C.2     1  LIG1        0.0551
     30 H           2.5550    6.7675    0.0790 H       1  LIG1        0.0888
     31 N          -0.9305   10.0869    0.0445 N.1     1  LIG1       -0.1908
     32 C          -1.3555    9.0220    0.0317 C.1     1  LIG1        0.1009
@<TRIPOS>BOND
     1    26    25   ar
     2    26    22   ar
     3    27    25    1
     4    25    24   ar
     5    10    11    1
     6    10    18    1
     7    11     3    1
     8     6     1    1
     9     9     8    1
    10     8     7    3
    11     7     2    1
    12     2     3   ar
    13     2     1   ar
    14     3     4   ar
    15     1     5   ar
    16     4     5   ar
    17     4    12    1
    18    20    21    1
    19    20    29    1
    20    19    18    1
    21    18    17    2
    22    21    14    1
    23    17    13    2
    24    12    13   ar
    25    12    16   ar
    26    13    14   ar
    27    14    15   ar
    28    16    15   ar
    29    15    22    1
    30    22    23   ar
    31    24    23   ar
    32    24    32    1
    33    23    28    2
    34    32    31    3
    35    28    29    2
    36    29    30    1
