@<TRIPOS>MOLECULE
mol_data/noopt/geoms/mol2/5ed5ed-5ed5ed.out
 42 48 0 0 0
SMALL
GASTEIGER

@<TRIPOS>ATOM
      1 C          -2.0792   -1.7080   -0.0002 C.ar    1  LIG1       -0.0080
      2 C          -0.7020   -1.7080   -0.0002 C.ar    1  LIG1        0.0377
      3 C          -0.1766   -0.3757   -0.0002 C.ar    1  LIG1        0.0134
      4 C          -1.1831    0.5643    0.0006 C.ar    1  LIG1        0.0337
      5 S          -2.6937   -0.1528    0.0006 S.2     1  LIG1       -0.0945
      6 H          -2.8374   -2.7640   -0.0008 H       1  LIG1        0.0706
      7 C           0.0503   -2.7682   -0.0004 C.1     1  LIG1       -0.0688
      8 C           0.7454   -3.7478   -0.0006 C.1     1  LIG1       -0.1139
      9 H           1.3646   -4.6205   -0.0007 H       1  LIG1        0.1232
     10 N           2.2200    0.1162   -0.0015 N.pl3   1  LIG1       -0.2335
     11 C           1.0969   -0.1143   -0.0009 C.3     1  LIG1        0.1396
     12 C          -1.0166    1.8536    0.0014 C.ar    1  LIG1        0.0420
     13 C           0.1958    2.5069    0.0015 C.ar    1  LIG1        0.0396
     14 C           0.0263    3.9290    0.0017 C.ar    1  LIG1        0.0134
     15 C          -1.3057    4.2790    0.0026 C.ar    1  LIG1        0.0343
     16 S          -2.2953    2.9311    0.0023 S.2     1  LIG1       -0.0856
     17 C           1.3610    1.9305    0.0013 C.1     1  LIG1       -0.0938
     18 C           2.4376    1.3979    0.0010 C.2     1  LIG1        0.0551
     19 H           3.3967    0.9234    0.0008 H       1  LIG1        0.0888
     20 N           1.9027    5.4990    0.0007 N.pl3   1  LIG1       -0.2335
     21 C           1.0233    4.7632    0.0012 C.3     1  LIG1        0.1396
     22 C          -1.7708    5.4930    0.0035 C.ar    1  LIG1        0.0420
     23 C          -1.0134    6.6433    0.0038 C.ar    1  LIG1        0.0396
     24 C          -1.8373    7.8147    0.0042 C.ar    1  LIG1        0.0134
     25 C          -3.1759    7.4910    0.0050 C.ar    1  LIG1        0.0343
     26 S          -3.4076    5.8350    0.0046 S.2     1  LIG1       -0.0856
     27 C           0.2858    6.6886    0.0035 C.1     1  LIG1       -0.0938
     28 C           1.4863    6.7305    0.0032 C.2     1  LIG1        0.0551
     29 H           2.5556    6.7678    0.0029 H       1  LIG1        0.0888
     30 N          -0.9302   10.0870    0.0034 N.pl3   1  LIG1       -0.2335
     31 C          -1.3553    9.0221    0.0038 C.3     1  LIG1        0.1396
     32 C          -4.1612    8.3391    0.0062 C.ar    1  LIG1        0.0423
     33 C          -4.0402    9.7108    0.0254 C.ar    1  LIG1        0.0509
     34 C          -5.3212   10.3513    0.0201 C.ar    1  LIG1        0.0742
     35 C          -6.3459    9.4314   -0.0022 C.ar    1  LIG1       -0.0051
     36 S          -5.7642    7.8638   -0.0165 S.2     1  LIG1       -0.0936
     37 H          -7.6155    9.7107   -0.0114 H       1  LIG1        0.0707
     38 C          -2.9181   10.3669    0.0458 C.1     1  LIG1       -0.0929
     39 C          -1.8813   10.9731    0.0647 C.2     1  LIG1        0.0551
     40 H          -0.9577   11.5131    0.0815 H       1  LIG1        0.0888
     41 N          -5.6007   12.7817    0.0476 N.1     1  LIG1       -0.1908
     42 C          -5.4697   11.6427    0.0347 C.1     1  LIG1        0.1009
@<TRIPOS>BOND
     1    36    35   ar
     2    36    32   ar
     3    37    35    1
     4    35    34   ar
     5    10    11    1
     6    10    18    1
     7    11     3    1
     8     6     1    1
     9     9     8    1
    10     8     7    3
    11     7     2    1
    12     2     3   ar
    13     2     1   ar
    14     3     4   ar
    15     1     5   ar
    16     4     5   ar
    17     4    12    1
    18    20    21    1
    19    20    28    1
    20    19    18    1
    21    18    17    2
    22    21    14    1
    23    17    13    2
    24    12    13   ar
    25    12    16   ar
    26    13    14   ar
    27    14    15   ar
    28    16    15   ar
    29    15    22    1
    30    29    28    1
    31    28    27    2
    32    30    31    1
    33    30    39    1
    34    27    23    2
    35    22    23   ar
    36    22    26   ar
    37    31    24    1
    38    23    24   ar
    39    24    25   ar
    40    26    25   ar
    41    25    32    1
    42    32    33   ar
    43    34    33   ar
    44    34    42    1
    45    33    38    2
    46    42    41    3
    47    38    39    2
    48    39    40    1
