@<TRIPOS>MOLECULE
mol_data/noopt/geoms/mol2/5ed5ed-.out
 22 24 0 0 0
SMALL
GASTEIGER

@<TRIPOS>ATOM
      1 C          -2.0792   -1.7080   -0.0002 C.ar    1  LIG1       -0.0080
      2 C          -0.7020   -1.7080   -0.0002 C.ar    1  LIG1        0.0377
      3 C          -0.1766   -0.3757   -0.0002 C.ar    1  LIG1        0.0134
      4 C          -1.1831    0.5643    0.0006 C.ar    1  LIG1        0.0337
      5 S          -2.6937   -0.1528    0.0006 S.2     1  LIG1       -0.0945
      6 H          -2.8374   -2.7640   -0.0008 H       1  LIG1        0.0706
      7 C           0.0503   -2.7682   -0.0004 C.1     1  LIG1       -0.0688
      8 C           0.7454   -3.7478   -0.0006 C.1     1  LIG1       -0.1139
      9 H           1.3646   -4.6205   -0.0007 H       1  LIG1        0.1232
     10 N           2.2200    0.1162   -0.0015 N.pl3   1  LIG1       -0.2335
     11 C           1.0969   -0.1143   -0.0009 C.3     1  LIG1        0.1396
     12 C          -1.0166    1.8536    0.0014 C.ar    1  LIG1        0.0423
     13 C           0.1958    2.5069    0.0015 C.ar    1  LIG1        0.0509
     14 C           0.0263    3.9290    0.0017 C.ar    1  LIG1        0.0742
     15 C          -1.3057    4.2790    0.0026 C.ar    1  LIG1       -0.0051
     16 S          -2.2953    2.9311    0.0023 S.2     1  LIG1       -0.0936
     17 H          -1.7708    5.4930    0.0035 H       1  LIG1        0.0707
     18 C           1.3610    1.9305    0.0013 C.1     1  LIG1       -0.0929
     19 C           2.4376    1.3979    0.0010 C.2     1  LIG1        0.0551
     20 H           3.3967    0.9234    0.0008 H       1  LIG1        0.0888
     21 N           1.9027    5.4990    0.0007 N.1     1  LIG1       -0.1908
     22 C           1.0233    4.7632    0.0012 C.1     1  LIG1        0.1009
@<TRIPOS>BOND
     1    10    11    1
     2    10    19    1
     3    11     3    1
     4     6     1    1
     5     9     8    1
     6     8     7    3
     7     7     2    1
     8     2     3   ar
     9     2     1   ar
    10     3     4   ar
    11     1     5   ar
    12     4     5   ar
    13     4    12    1
    14    21    22    3
    15    20    19    1
    16    19    18    2
    17    22    14    1
    18    18    13    2
    19    12    13   ar
    20    12    16   ar
    21    13    14   ar
    22    14    15   ar
    23    16    15   ar
    24    15    17    1
