@<TRIPOS>MOLECULE
mol_data/noopt/geoms/mol2/5ed5ed-5ed-5ed-.out
 42 48 0 0 0
SMALL
GASTEIGER

@<TRIPOS>ATOM
      1 C          -2.0792   -1.7080   -0.0002 C.ar    1  LIG1       -0.0080
      2 C          -0.7020   -1.7080   -0.0002 C.ar    1  LIG1        0.0377
      3 C          -0.1766   -0.3757   -0.0002 C.ar    1  LIG1        0.0134
      4 C          -1.1831    0.5643    0.0006 C.ar    1  LIG1        0.0337
      5 S          -2.6937   -0.1528    0.0006 S.2     1  LIG1       -0.0945
      6 H          -2.8374   -2.7640   -0.0008 H       1  LIG1        0.0706
      7 C           0.0503   -2.7682   -0.0004 C.1     1  LIG1       -0.0688
      8 C           0.7454   -3.7478   -0.0006 C.1     1  LIG1       -0.1139
      9 H           1.3646   -4.6205   -0.0007 H       1  LIG1        0.1232
     10 N           2.2200    0.1162   -0.0015 N.pl3   1  LIG1       -0.2335
     11 C           1.0969   -0.1143   -0.0009 C.3     1  LIG1        0.1396
     12 C          -1.0166    1.8536    0.0014 C.ar    1  LIG1        0.0420
     13 C           0.1958    2.5069    0.0015 C.ar    1  LIG1        0.0396
     14 C           0.0263    3.9290    0.0017 C.ar    1  LIG1        0.0134
     15 C          -1.3057    4.2790    0.0026 C.ar    1  LIG1        0.0343
     16 S          -2.2953    2.9311    0.0023 S.2     1  LIG1       -0.0856
     17 C           1.3610    1.9305    0.0013 C.1     1  LIG1       -0.0938
     18 C           2.4376    1.3979    0.0010 C.2     1  LIG1        0.0551
     19 H           3.3967    0.9234    0.0008 H       1  LIG1        0.0888
     20 N           1.9027    5.4990    0.0007 N.pl3   1  LIG1       -0.2335
     21 C           1.0233    4.7632    0.0012 C.3     1  LIG1        0.1396
     22 C          -1.7708    5.4930    0.0035 C.ar    1  LIG1        0.0420
     23 C          -1.0136    6.6432    0.0227 C.ar    1  LIG1        0.0396
     24 C          -1.8374    7.8147    0.0172 C.ar    1  LIG1        0.0134
     25 C          -3.1758    7.4910   -0.0051 C.ar    1  LIG1        0.0343
     26 S          -3.4074    5.8351   -0.0192 S.2     1  LIG1       -0.0856
     27 C           0.2855    6.6885    0.0432 C.1     1  LIG1       -0.0938
     28 C           1.4858    6.7303    0.0621 C.2     1  LIG1        0.0551
     29 H           2.5550    6.7675    0.0790 H       1  LIG1        0.0888
     30 N          -0.9305   10.0869    0.0445 N.pl3   1  LIG1       -0.2335
     31 C          -1.3555    9.0220    0.0317 C.3     1  LIG1        0.1396
     32 C          -4.1610    8.3391   -0.0144 C.ar    1  LIG1        0.0423
     33 C          -4.0399    9.7110   -0.0205 C.ar    1  LIG1        0.0509
     34 C          -5.3208   10.3515   -0.0311 C.ar    1  LIG1        0.0742
     35 C          -6.3457    9.4315   -0.0316 C.ar    1  LIG1       -0.0051
     36 S          -5.7642    7.8638   -0.0205 S.2     1  LIG1       -0.0936
     37 H          -7.6153    9.7107   -0.0396 H       1  LIG1        0.0707
     38 C          -2.9176   10.3672   -0.0175 C.1     1  LIG1       -0.0929
     39 C          -1.8807   10.9735   -0.0147 C.2     1  LIG1        0.0551
     40 H          -0.9570   11.5136   -0.0122 H       1  LIG1        0.0888
     41 N          -5.6000   12.7820   -0.0461 N.1     1  LIG1       -0.1908
     42 C          -5.4692   11.6430   -0.0391 C.1     1  LIG1        0.1009
@<TRIPOS>BOND
     1    41    42    3
     2    37    35    1
     3    42    34    1
     4    35    34   ar
     5    35    36   ar
     6    34    33   ar
     7    33    38    2
     8    33    32   ar
     9    36    32   ar
    10    26    25   ar
    11    26    22   ar
    12    38    39    2
    13    39    40    1
    14    39    30    1
    15    32    25    1
    16    25    24   ar
    17    10    11    1
    18    10    18    1
    19    11     3    1
    20     6     1    1
    21     9     8    1
    22     8     7    3
    23     7     2    1
    24     1     2   ar
    25     1     5   ar
    26     2     3   ar
    27     3     4   ar
    28     4     5   ar
    29     4    12    1
    30    20    21    1
    31    20    28    1
    32    19    18    1
    33    18    17    2
    34    21    14    1
    35    17    13    2
    36    12    13   ar
    37    12    16   ar
    38    13    14   ar
    39    14    15   ar
    40    16    15   ar
    41    15    22    1
    42    22    23   ar
    43    24    23   ar
    44    24    31    1
    45    23    27    2
    46    31    30    1
    47    27    28    2
    48    28    29    1
