@<TRIPOS>MOLECULE
mol_data/noopt/geoms/mol2/5ed5ed5ed-5ed-.out
 42 48 0 0 0
SMALL
GASTEIGER

@<TRIPOS>ATOM
      1 C          -2.0792   -1.7080   -0.0002 C.ar    1  LIG1       -0.0080
      2 C          -0.7020   -1.7080   -0.0002 C.ar    1  LIG1        0.0377
      3 C          -0.1766   -0.3757   -0.0002 C.ar    1  LIG1        0.0134
      4 C          -1.1831    0.5643    0.0006 C.ar    1  LIG1        0.0337
      5 S          -2.6937   -0.1528    0.0006 S.2     1  LIG1       -0.0945
      6 H          -2.8374   -2.7640   -0.0008 H       1  LIG1        0.0706
      7 C           0.0503   -2.7682   -0.0004 C.1     1  LIG1       -0.0688
      8 C           0.7454   -3.7478   -0.0006 C.1     1  LIG1       -0.1139
      9 H           1.3646   -4.6205   -0.0007 H       1  LIG1        0.1232
     10 N           2.2200    0.1162   -0.0015 N.pl3   1  LIG1       -0.2335
     11 C           1.0969   -0.1143   -0.0009 C.3     1  LIG1        0.1396
     12 C          -1.0166    1.8536    0.0014 C.ar    1  LIG1        0.0420
     13 C           0.1956    2.5069    0.0205 C.ar    1  LIG1        0.0396
     14 C           0.0262    3.9290    0.0147 C.ar    1  LIG1        0.0134
     15 C          -1.3056    4.2790   -0.0075 C.ar    1  LIG1        0.0343
     16 S          -2.2951    2.9311   -0.0215 S.2     1  LIG1       -0.0856
     17 C           1.3607    1.9305    0.0410 C.1     1  LIG1       -0.0938
     18 C           2.4372    1.3979    0.0600 C.2     1  LIG1        0.0551
     19 H           3.3961    0.9235    0.0769 H       1  LIG1        0.0888
     20 N           1.9024    5.4990    0.0418 N.pl3   1  LIG1       -0.2335
     21 C           1.0231    4.7632    0.0291 C.3     1  LIG1        0.1396
     22 C          -1.7706    5.4930   -0.0170 C.ar    1  LIG1        0.0420
     23 C          -1.0134    6.6433   -0.0043 C.ar    1  LIG1        0.0396
     24 C          -1.8371    7.8147   -0.0210 C.ar    1  LIG1        0.0134
     25 C          -3.1754    7.4910   -0.0446 C.ar    1  LIG1        0.0343
     26 S          -3.4072    5.8350   -0.0470 S.2     1  LIG1       -0.0856
     27 C           0.2856    6.6886    0.0196 C.1     1  LIG1       -0.0938
     28 C           1.4859    6.7305    0.0416 C.2     1  LIG1        0.0551
     29 H           2.5551    6.7678    0.0613 H       1  LIG1        0.0888
     30 N          -0.9301   10.0870   -0.0081 N.pl3   1  LIG1       -0.2335
     31 C          -1.3552    9.0221   -0.0141 C.3     1  LIG1        0.1396
     32 C          -4.1606    8.3390   -0.0631 C.ar    1  LIG1        0.0423
     33 C          -4.0394    9.7108   -0.0749 C.ar    1  LIG1        0.0509
     34 C          -5.3202   10.3513   -0.0953 C.ar    1  LIG1        0.0742
     35 C          -6.3451    9.4313   -0.0971 C.ar    1  LIG1       -0.0051
     36 S          -5.7637    7.8636   -0.0756 S.2     1  LIG1       -0.0936
     37 H          -7.6146    9.7105   -0.1131 H       1  LIG1        0.0707
     38 C          -2.9172   10.3670   -0.0689 C.1     1  LIG1       -0.0929
     39 C          -1.8802   10.9733   -0.0634 C.2     1  LIG1        0.0551
     40 H          -0.9565   11.5134   -0.0584 H       1  LIG1        0.0888
     41 N          -5.5993   12.7818   -0.1230 N.1     1  LIG1       -0.1908
     42 C          -5.4685   11.6427   -0.1100 C.1     1  LIG1        0.1009
@<TRIPOS>BOND
     1    41    42    3
     2    37    35    1
     3    42    34    1
     4    35    34   ar
     5    35    36   ar
     6    34    33   ar
     7    36    32   ar
     8    33    38    2
     9    33    32   ar
    10    38    39    2
    11    39    40    1
    12    39    30    1
    13    32    25    1
    14    26    25   ar
    15    26    22   ar
    16    25    24   ar
    17    16    15   ar
    18    16    12   ar
    19    24    31    1
    20    24    23   ar
    21    22    15    1
    22    22    23   ar
    23    31    30    1
    24    15    14   ar
    25    23    27    2
    26    10    11    1
    27    10    18    1
    28    11     3    1
    29     6     1    1
    30     9     8    1
    31     8     7    3
    32     7     2    1
    33     2     3   ar
    34     2     1   ar
    35     3     4   ar
    36     1     5   ar
    37     5     4   ar
    38     4    12    1
    39    12    13   ar
    40    14    13   ar
    41    14    21    1
    42    27    28    2
    43    13    17    2
    44    21    20    1
    45    17    18    2
    46    28    20    1
    47    28    29    1
    48    18    19    1
