@<TRIPOS>MOLECULE
mol_data/noopt/geoms/mol2/5ee.out
 13 13 0 0 0
SMALL
GASTEIGER

@<TRIPOS>ATOM
      1 C          -2.0792   -1.7080   -0.0002 C.ar    1  LIG1       -0.0077
      2 C          -0.7020   -1.7080   -0.0002 C.ar    1  LIG1        0.0470
      3 C          -0.1766   -0.3757   -0.0002 C.ar    1  LIG1        0.0470
      4 C          -1.1831    0.5643    0.0006 C.ar    1  LIG1       -0.0077
      5 S          -2.6937   -0.1528    0.0006 S.2     1  LIG1       -0.1026
      6 H          -2.8374   -2.7640   -0.0008 H       1  LIG1        0.0706
      7 H          -1.0166    1.8536    0.0014 H       1  LIG1        0.0706
      8 C           0.0503   -2.7682   -0.0004 C.1     1  LIG1       -0.0679
      9 C           0.7454   -3.7478   -0.0006 C.1     1  LIG1       -0.1139
     10 H           1.3646   -4.6205   -0.0007 H       1  LIG1        0.1232
     11 C           1.0969   -0.1143   -0.0009 C.1     1  LIG1       -0.0679
     12 C           2.2735    0.1272   -0.0015 C.1     1  LIG1       -0.1139
     13 H           3.3217    0.3424   -0.0021 H       1  LIG1        0.1232
@<TRIPOS>BOND
     1    13    12    1
     2    12    11    3
     3    11     3    1
     4     6     1    1
     5    10     9    1
     6     9     8    3
     7     8     2    1
     8     1     2   ar
     9     1     5   ar
    10     2     3   ar
    11     3     4   ar
    12     4     5   ar
    13     4     7    1
