@<TRIPOS>MOLECULE
mol_data/noopt/geoms/mol2/5ee5ee-5ee-5ee-.out
 46 52 0 0 0
SMALL
GASTEIGER

@<TRIPOS>ATOM
      1 C          -2.0792   -1.7080   -0.0002 C.ar    1  LIG1       -0.0071
      2 C          -0.7020   -1.7080   -0.0002 C.ar    1  LIG1        0.0471
      3 C          -0.1766   -0.3757   -0.0002 C.ar    1  LIG1        0.0477
      4 C          -1.1831    0.5643    0.0006 C.ar    1  LIG1        0.0431
      5 S          -2.6937   -0.1528    0.0006 S.2     1  LIG1       -0.0936
      6 H          -2.8374   -2.7640   -0.0008 H       1  LIG1        0.0706
      7 C           0.0503   -2.7682   -0.0004 C.1     1  LIG1       -0.0679
      8 C           0.7454   -3.7478   -0.0006 C.1     1  LIG1       -0.1139
      9 H           1.3646   -4.6205   -0.0007 H       1  LIG1        0.1232
     10 C           1.0969   -0.1143   -0.0009 C.1     1  LIG1       -0.1090
     11 C           2.2735    0.1272   -0.0015 C.2     1  LIG1       -0.0112
     12 H           3.3217    0.3424   -0.0021 H       1  LIG1        0.0712
     13 C          -1.0166    1.8536    0.0014 C.ar    1  LIG1        0.0436
     14 C           0.1958    2.5069    0.0015 C.ar    1  LIG1        0.0477
     15 C           0.0263    3.9290    0.0017 C.ar    1  LIG1        0.0477
     16 C          -1.3057    4.2790    0.0026 C.ar    1  LIG1        0.0434
     17 S          -2.2953    2.9311    0.0023 S.2     1  LIG1       -0.0847
     18 C           1.3610    1.9305    0.0013 C.1     1  LIG1       -0.1090
     19 C           2.4376    1.3979    0.0010 C.2     1  LIG1       -0.0112
     20 H           3.3967    0.9234    0.0008 H       1  LIG1        0.0712
     21 C           1.0233    4.7632    0.0012 C.1     1  LIG1       -0.1090
     22 C           1.9446    5.5340    0.0007 C.2     1  LIG1       -0.0112
     23 H           2.7652    6.2207    0.0002 H       1  LIG1        0.0712
     24 C          -1.7708    5.4930    0.0035 C.2     1  LIG1        0.0397
     25 C          -1.0136    6.6432    0.0227 C.2     1  LIG1        0.0441
     26 C          -1.8374    7.8147    0.0172 C.2     1  LIG1        0.0337
     27 C          -3.1758    7.4910   -0.0051 C.3     1  LIG1        0.1104
     28 S          -3.4074    5.8351   -0.0192 S.3     1  LIG1       -0.1033
     29 C           0.2855    6.6885    0.0432 C.1     1  LIG1       -0.1094
     30 C           1.4858    6.7303    0.0621 C.2     1  LIG1       -0.0112
     31 H           2.5550    6.7675    0.0790 H       1  LIG1        0.0712
     32 C          -1.3555    9.0220    0.0317 C.1     1  LIG1       -0.1127
     33 C          -0.9102   10.1376    0.0451 C.2     1  LIG1       -0.0115
     34 H          -0.5136   11.1313    0.0570 H       1  LIG1        0.0712
     35 C          -4.1610    8.3391   -0.0144 C.ar    1  LIG1        0.0291
     36 C          -4.0399    9.7110   -0.0205 C.ar    1  LIG1        0.0443
     37 C          -5.3208   10.3515   -0.0311 C.ar    1  LIG1        0.0468
     38 C          -6.3457    9.4315   -0.0316 C.ar    1  LIG1       -0.0074
     39 S          -5.7642    7.8638   -0.0205 S.2     1  LIG1       -0.0973
     40 H          -7.6153    9.7107   -0.0396 H       1  LIG1        0.0706
     41 C          -2.9176   10.3672   -0.0175 C.1     1  LIG1       -0.1093
     42 C          -1.8807   10.9735   -0.0147 C.2     1  LIG1       -0.0112
     43 H          -0.9570   11.5136   -0.0122 H       1  LIG1        0.0712
     44 C          -5.4692   11.6430   -0.0391 C.1     1  LIG1       -0.0679
     45 C          -5.6063   12.8363   -0.0464 C.1     1  LIG1       -0.1139
     46 H          -5.7284   13.8993   -0.0530 H       1  LIG1        0.1232
@<TRIPOS>BOND
     1    46    45    1
     2    45    44    3
     3    40    38    1
     4    44    37    1
     5    38    37   ar
     6    38    39   ar
     7    37    36   ar
     8    36    41    2
     9    36    35   ar
    10    39    35   ar
    11    28    27    1
    12    28    24    2
    13    41    42    2
    14    42    43    1
    15    42    33    1
    16    35    27    1
    17    27    26    1
    18    12    11    1
    19    11    10    2
    20    11    19    1
    21    10     3    2
    22     6     1    1
    23     9     8    1
    24     8     7    3
    25     7     2    1
    26     1     2   ar
    27     1     5   ar
    28     2     3   ar
    29     3     4   ar
    30    23    22    1
    31     4     5   ar
    32     4    13    2
    33    22    21    2
    34    22    30    1
    35    20    19    1
    36    19    18    2
    37    21    15    2
    38    18    14    2
    39    13    14   ar
    40    13    17   ar
    41    14    15   ar
    42    15    16   ar
    43    17    16   ar
    44    16    24    1
    45    24    25    1
    46    26    25    1
    47    26    32    2
    48    25    29    2
    49    32    33    2
    50    29    30    2
    51    33    34    1
    52    30    31    1
