@<TRIPOS>MOLECULE
mol_data/noopt/geoms/mol2/5ee5ee-5ee-5ee.out
 46 52 0 0 0
SMALL
GASTEIGER

@<TRIPOS>ATOM
      1 C          -2.0792   -1.7080   -0.0002 C.ar    1  LIG1       -0.0071
      2 C          -0.7020   -1.7080   -0.0002 C.ar    1  LIG1        0.0471
      3 C          -0.1766   -0.3757   -0.0002 C.ar    1  LIG1        0.0477
      4 C          -1.1831    0.5643    0.0006 C.ar    1  LIG1        0.0431
      5 S          -2.6937   -0.1528    0.0006 S.2     1  LIG1       -0.0936
      6 H          -2.8374   -2.7640   -0.0008 H       1  LIG1        0.0706
      7 C           0.0503   -2.7682   -0.0004 C.1     1  LIG1       -0.0679
      8 C           0.7454   -3.7478   -0.0006 C.1     1  LIG1       -0.1139
      9 H           1.3646   -4.6205   -0.0007 H       1  LIG1        0.1232
     10 C           1.0969   -0.1143   -0.0009 C.1     1  LIG1       -0.1090
     11 C           2.2735    0.1272   -0.0015 C.2     1  LIG1       -0.0112
     12 H           3.3217    0.3424   -0.0021 H       1  LIG1        0.0712
     13 C          -1.0166    1.8536    0.0014 C.ar    1  LIG1        0.0436
     14 C           0.1958    2.5069    0.0015 C.ar    1  LIG1        0.0477
     15 C           0.0263    3.9290    0.0017 C.ar    1  LIG1        0.0477
     16 C          -1.3057    4.2790    0.0026 C.ar    1  LIG1        0.0434
     17 S          -2.2953    2.9311    0.0023 S.2     1  LIG1       -0.0847
     18 C           1.3610    1.9305    0.0013 C.1     1  LIG1       -0.1090
     19 C           2.4376    1.3979    0.0010 C.2     1  LIG1       -0.0112
     20 H           3.3967    0.9234    0.0008 H       1  LIG1        0.0712
     21 C           1.0233    4.7632    0.0012 C.1     1  LIG1       -0.1090
     22 C           1.9446    5.5340    0.0007 C.2     1  LIG1       -0.0112
     23 H           2.7652    6.2207    0.0002 H       1  LIG1        0.0712
     24 C          -1.7708    5.4930    0.0035 C.2     1  LIG1        0.0397
     25 C          -1.0136    6.6432    0.0227 C.2     1  LIG1        0.0441
     26 C          -1.8374    7.8147    0.0172 C.2     1  LIG1        0.0337
     27 C          -3.1758    7.4910   -0.0051 C.3     1  LIG1        0.1104
     28 S          -3.4074    5.8351   -0.0192 S.3     1  LIG1       -0.1033
     29 C           0.2855    6.6885    0.0432 C.1     1  LIG1       -0.1094
     30 C           1.4858    6.7303    0.0621 C.2     1  LIG1       -0.0112
     31 H           2.5550    6.7675    0.0790 H       1  LIG1        0.0712
     32 C          -1.3555    9.0220    0.0317 C.1     1  LIG1       -0.1127
     33 C          -0.9102   10.1376    0.0451 C.2     1  LIG1       -0.0115
     34 H          -0.5136   11.1313    0.0570 H       1  LIG1        0.0712
     35 C          -4.1610    8.3391   -0.0144 C.ar    1  LIG1        0.0291
     36 C          -4.0401    9.7110   -0.0016 C.ar    1  LIG1        0.0443
     37 C          -5.3209   10.3515   -0.0181 C.ar    1  LIG1        0.0468
     38 C          -6.3455    9.4316   -0.0417 C.ar    1  LIG1       -0.0074
     39 S          -5.7639    7.8638   -0.0443 S.2     1  LIG1       -0.0973
     40 H          -7.6151    9.7108   -0.0601 H       1  LIG1        0.0706
     41 C          -2.9181   10.3671    0.0222 C.1     1  LIG1       -0.1093
     42 C          -1.8813   10.9734    0.0443 C.2     1  LIG1       -0.0112
     43 H          -0.9578   11.5134    0.0639 H       1  LIG1        0.0712
     44 C          -5.4695   11.6429   -0.0111 C.1     1  LIG1       -0.0679
     45 C          -5.6067   12.8363   -0.0047 C.1     1  LIG1       -0.1139
     46 H          -5.7289   13.8992    0.0010 H       1  LIG1        0.1232
@<TRIPOS>BOND
     1    40    38    1
     2    39    38   ar
     3    39    35   ar
     4    38    37   ar
     5    28    27    1
     6    28    24    2
     7    37    44    1
     8    37    36   ar
     9    35    27    1
    10    35    36   ar
    11    44    45    3
    12    27    26    1
    13    45    46    1
    14    12    11    1
    15    36    41    2
    16    11    10    2
    17    11    19    1
    18    10     3    2
    19     6     1    1
    20     9     8    1
    21     8     7    3
    22     7     2    1
    23     1     2   ar
    24     1     5   ar
    25     3     2   ar
    26     3     4   ar
    27    23    22    1
    28     5     4   ar
    29     4    13    2
    30    22    21    2
    31    22    30    1
    32    20    19    1
    33    19    18    2
    34    21    15    2
    35    18    14    2
    36    13    14   ar
    37    13    17   ar
    38    14    15   ar
    39    15    16   ar
    40    17    16   ar
    41    16    24    1
    42    24    25    1
    43    26    25    1
    44    26    32    2
    45    41    42    2
    46    25    29    2
    47    32    33    2
    48    29    30    2
    49    42    33    1
    50    42    43    1
    51    33    34    1
    52    30    31    1
