@<TRIPOS>MOLECULE
mol_data/noopt/geoms/mol2/5ee5ee5ee5ee.out
 46 52 0 0 0
SMALL
GASTEIGER

@<TRIPOS>ATOM
      1 C          -2.0792   -1.7080   -0.0002 C.ar    1  LIG1       -0.0071
      2 C          -0.7020   -1.7080   -0.0002 C.ar    1  LIG1        0.0471
      3 C          -0.1766   -0.3757   -0.0002 C.ar    1  LIG1        0.0477
      4 C          -1.1831    0.5643    0.0006 C.ar    1  LIG1        0.0431
      5 S          -2.6937   -0.1528    0.0006 S.2     1  LIG1       -0.0936
      6 H          -2.8374   -2.7640   -0.0008 H       1  LIG1        0.0706
      7 C           0.0503   -2.7682   -0.0004 C.1     1  LIG1       -0.0679
      8 C           0.7454   -3.7478   -0.0006 C.1     1  LIG1       -0.1139
      9 H           1.3646   -4.6205   -0.0007 H       1  LIG1        0.1232
     10 C           1.0969   -0.1143   -0.0009 C.1     1  LIG1       -0.1090
     11 C           2.2735    0.1272   -0.0015 C.2     1  LIG1       -0.0112
     12 H           3.3217    0.3424   -0.0021 H       1  LIG1        0.0712
     13 C          -1.0166    1.8536    0.0014 C.ar    1  LIG1        0.0436
     14 C           0.1956    2.5069    0.0205 C.ar    1  LIG1        0.0477
     15 C           0.0262    3.9290    0.0147 C.ar    1  LIG1        0.0477
     16 C          -1.3056    4.2790   -0.0075 C.ar    1  LIG1        0.0437
     17 S          -2.2951    2.9311   -0.0215 S.2     1  LIG1       -0.0847
     18 C           1.3607    1.9305    0.0410 C.1     1  LIG1       -0.1090
     19 C           2.4372    1.3979    0.0600 C.2     1  LIG1       -0.0112
     20 H           3.3961    0.9235    0.0769 H       1  LIG1        0.0712
     21 C           1.0231    4.7632    0.0291 C.1     1  LIG1       -0.1090
     22 C           1.9443    5.5341    0.0424 C.2     1  LIG1       -0.0112
     23 H           2.7648    6.2207    0.0542 H       1  LIG1        0.0712
     24 C          -1.7706    5.4930   -0.0170 C.ar    1  LIG1        0.0437
     25 C          -1.0132    6.6432   -0.0232 C.ar    1  LIG1        0.0477
     26 C          -1.8369    7.8147   -0.0340 C.ar    1  LIG1        0.0477
     27 C          -3.1756    7.4910   -0.0345 C.ar    1  LIG1        0.0436
     28 S          -3.4074    5.8350   -0.0232 S.2     1  LIG1       -0.0847
     29 C           0.2860    6.6885   -0.0202 C.1     1  LIG1       -0.1090
     30 C           1.4865    6.7303   -0.0173 C.2     1  LIG1       -0.0112
     31 H           2.5558    6.7675   -0.0148 H       1  LIG1        0.0712
     32 C          -1.3549    9.0220   -0.0421 C.1     1  LIG1       -0.1090
     33 C          -0.9095   10.1375   -0.0495 C.2     1  LIG1       -0.0112
     34 H          -0.5127   11.1312   -0.0562 H       1  LIG1        0.0712
     35 C          -4.1608    8.3391   -0.0426 C.ar    1  LIG1        0.0431
     36 C          -4.0399    9.7109   -0.0290 C.ar    1  LIG1        0.0477
     37 C          -5.3207   10.3514   -0.0442 C.ar    1  LIG1        0.0471
     38 C          -6.3454    9.4315   -0.0677 C.ar    1  LIG1       -0.0071
     39 S          -5.7637    7.8638   -0.0716 S.2     1  LIG1       -0.0936
     40 H          -7.6149    9.7107   -0.0849 H       1  LIG1        0.0706
     41 C          -2.9179   10.3671   -0.0056 C.1     1  LIG1       -0.1090
     42 C          -1.8811   10.9733    0.0160 C.2     1  LIG1       -0.0112
     43 H          -0.9576   11.5134    0.0353 H       1  LIG1        0.0712
     44 C          -5.4693   11.6429   -0.0363 C.1     1  LIG1       -0.0679
     45 C          -5.6065   12.8362   -0.0290 C.1     1  LIG1       -0.1139
     46 H          -5.7288   13.8992   -0.0226 H       1  LIG1        0.1232
@<TRIPOS>BOND
     1    40    38    1
     2    39    38   ar
     3    39    35   ar
     4    38    37   ar
     5    34    33    1
     6    33    32    2
     7    33    42    1
     8    37    44    1
     9    37    36   ar
    10    35    27    1
    11    35    36   ar
    12    32    26    2
    13    44    45    3
    14    27    26   ar
    15    27    28   ar
    16    26    25   ar
    17    45    46    1
    18    36    41    2
    19    25    29    2
    20    25    24   ar
    21    28    24   ar
    22    17    16   ar
    23    17    13   ar
    24    29    30    2
    25    30    31    1
    26    30    22    1
    27    24    16    2
    28    16    15   ar
    29    41    42    2
    30    12    11    1
    31    11    10    2
    32    11    19    1
    33    10     3    2
    34     6     1    1
    35     9     8    1
    36     8     7    3
    37     7     2    1
    38     2     3   ar
    39     2     1   ar
    40     3     4   ar
    41     1     5   ar
    42     5     4   ar
    43     4    13    1
    44    13    14   ar
    45    15    14   ar
    46    15    21    2
    47    42    43    1
    48    14    18    2
    49    21    22    2
    50    18    19    2
    51    22    23    1
    52    19    20    1
