@<TRIPOS>MOLECULE
mol_data/noopt/geoms/mol2/5ee5ee.out
 24 26 0 0 0
SMALL
GASTEIGER

@<TRIPOS>ATOM
      1 C          -2.0792   -1.7080   -0.0002 C.ar    1  LIG1       -0.0071
      2 C          -0.7020   -1.7080   -0.0002 C.ar    1  LIG1        0.0471
      3 C          -0.1766   -0.3757   -0.0002 C.ar    1  LIG1        0.0477
      4 C          -1.1831    0.5643    0.0006 C.ar    1  LIG1        0.0431
      5 S          -2.6937   -0.1528    0.0006 S.2     1  LIG1       -0.0936
      6 H          -2.8374   -2.7640   -0.0008 H       1  LIG1        0.0706
      7 C           0.0503   -2.7682   -0.0004 C.1     1  LIG1       -0.0679
      8 C           0.7454   -3.7478   -0.0006 C.1     1  LIG1       -0.1139
      9 H           1.3646   -4.6205   -0.0007 H       1  LIG1        0.1232
     10 C           1.0969   -0.1143   -0.0009 C.1     1  LIG1       -0.1090
     11 C           2.2735    0.1272   -0.0015 C.2     1  LIG1       -0.0112
     12 H           3.3217    0.3424   -0.0021 H       1  LIG1        0.0712
     13 C          -1.0166    1.8536    0.0014 C.ar    1  LIG1        0.0431
     14 C           0.1956    2.5069    0.0205 C.ar    1  LIG1        0.0477
     15 C           0.0262    3.9290    0.0147 C.ar    1  LIG1        0.0471
     16 C          -1.3056    4.2790   -0.0075 C.ar    1  LIG1       -0.0071
     17 S          -2.2951    2.9311   -0.0215 S.2     1  LIG1       -0.0936
     18 H          -1.7706    5.4930   -0.0170 H       1  LIG1        0.0706
     19 C           1.3607    1.9305    0.0410 C.1     1  LIG1       -0.1090
     20 C           2.4372    1.3979    0.0600 C.2     1  LIG1       -0.0112
     21 H           3.3961    0.9235    0.0769 H       1  LIG1        0.0712
     22 C           1.0231    4.7632    0.0291 C.1     1  LIG1       -0.0679
     23 C           1.9443    5.5341    0.0424 C.1     1  LIG1       -0.1139
     24 H           2.7648    6.2207    0.0542 H       1  LIG1        0.1232
@<TRIPOS>BOND
     1    17    16   ar
     2    17    13   ar
     3    18    16    1
     4    16    15   ar
     5    12    11    1
     6    11    10    2
     7    11    20    1
     8    10     3    2
     9     6     1    1
    10     9     8    1
    11     8     7    3
    12     7     2    1
    13     2     3   ar
    14     2     1   ar
    15     3     4   ar
    16     1     5   ar
    17     4     5   ar
    18     4    13    1
    19    13    14   ar
    20    15    14   ar
    21    15    22    1
    22    14    19    2
    23    22    23    3
    24    19    20    2
    25    23    24    1
    26    20    21    1
