@<TRIPOS>MOLECULE
mol_data/noopt/geoms/mol2/5ee5ee-5ee5ee-.out
 46 52 0 0 0
SMALL
GASTEIGER

@<TRIPOS>ATOM
      1 C          -2.0792   -1.7080   -0.0002 C.ar    1  LIG1       -0.0071
      2 C          -0.7020   -1.7080   -0.0002 C.ar    1  LIG1        0.0471
      3 C          -0.1766   -0.3757   -0.0002 C.ar    1  LIG1        0.0477
      4 C          -1.1831    0.5643    0.0006 C.ar    1  LIG1        0.0431
      5 S          -2.6937   -0.1528    0.0006 S.2     1  LIG1       -0.0936
      6 H          -2.8374   -2.7640   -0.0008 H       1  LIG1        0.0706
      7 C           0.0503   -2.7682   -0.0004 C.1     1  LIG1       -0.0679
      8 C           0.7454   -3.7478   -0.0006 C.1     1  LIG1       -0.1139
      9 H           1.3646   -4.6205   -0.0007 H       1  LIG1        0.1232
     10 C           1.0969   -0.1143   -0.0009 C.1     1  LIG1       -0.1090
     11 C           2.2735    0.1272   -0.0015 C.2     1  LIG1       -0.0112
     12 H           3.3217    0.3424   -0.0021 H       1  LIG1        0.0712
     13 C          -1.0166    1.8536    0.0014 C.ar    1  LIG1        0.0436
     14 C           0.1958    2.5069    0.0015 C.ar    1  LIG1        0.0477
     15 C           0.0263    3.9290    0.0017 C.ar    1  LIG1        0.0477
     16 C          -1.3057    4.2790    0.0026 C.ar    1  LIG1        0.0434
     17 S          -2.2953    2.9311    0.0023 S.2     1  LIG1       -0.0847
     18 C           1.3610    1.9305    0.0013 C.1     1  LIG1       -0.1090
     19 C           2.4376    1.3979    0.0010 C.2     1  LIG1       -0.0112
     20 H           3.3967    0.9234    0.0008 H       1  LIG1        0.0712
     21 C           1.0233    4.7632    0.0012 C.1     1  LIG1       -0.1090
     22 C           1.9446    5.5340    0.0007 C.2     1  LIG1       -0.0112
     23 H           2.7652    6.2207    0.0002 H       1  LIG1        0.0712
     24 C          -1.7708    5.4930    0.0035 C.2     1  LIG1        0.0397
     25 C          -1.0134    6.6433    0.0038 C.2     1  LIG1        0.0441
     26 C          -1.8373    7.8147    0.0042 C.2     1  LIG1        0.0337
     27 C          -3.1759    7.4910    0.0050 C.3     1  LIG1        0.1104
     28 S          -3.4076    5.8350    0.0046 S.3     1  LIG1       -0.1033
     29 C           0.2858    6.6886    0.0035 C.1     1  LIG1       -0.1094
     30 C           1.4863    6.7305    0.0032 C.2     1  LIG1       -0.0112
     31 H           2.5556    6.7678    0.0029 H       1  LIG1        0.0712
     32 C          -1.3553    9.0221    0.0038 C.1     1  LIG1       -0.1127
     33 C          -0.9100   10.1377    0.0034 C.2     1  LIG1       -0.0115
     34 H          -0.5133   11.1315    0.0030 H       1  LIG1        0.0712
     35 C          -4.1612    8.3391    0.0062 C.ar    1  LIG1        0.0291
     36 C          -4.0401    9.7109    0.0065 C.ar    1  LIG1        0.0443
     37 C          -5.3211   10.3514    0.0071 C.ar    1  LIG1        0.0468
     38 C          -6.3459    9.4314    0.0079 C.ar    1  LIG1       -0.0074
     39 S          -5.7643    7.8636    0.0073 S.2     1  LIG1       -0.0973
     40 H          -7.6156    9.7105    0.0092 H       1  LIG1        0.0706
     41 C          -2.9179   10.3672    0.0061 C.1     1  LIG1       -0.1093
     42 C          -1.8810   10.9735    0.0058 C.2     1  LIG1       -0.0112
     43 H          -0.9573   11.5137    0.0055 H       1  LIG1        0.0712
     44 C          -5.4696   11.6429    0.0067 C.1     1  LIG1       -0.0679
     45 C          -5.6068   12.8362    0.0065 C.1     1  LIG1       -0.1139
     46 H          -5.7290   13.8992    0.0062 H       1  LIG1        0.1232
@<TRIPOS>BOND
     1    12    11    1
     2    11    10    2
     3    11    19    1
     4    10     3    2
     5     6     1    1
     6     9     8    1
     7     8     7    3
     8     7     2    1
     9     2     3   ar
    10     2     1   ar
    11     3     4   ar
    12     1     5   ar
    13    23    22    1
    14     4     5   ar
    15     4    13    2
    16    22    21    2
    17    22    30    1
    18    20    19    1
    19    19    18    2
    20    21    15    2
    21    18    14    2
    22    13    14   ar
    23    13    17   ar
    24    14    15   ar
    25    15    16   ar
    26    17    16   ar
    27    16    24    1
    28    31    30    1
    29    34    33    1
    30    30    29    2
    31    33    32    2
    32    33    42    1
    33    29    25    2
    34    24    25    1
    35    24    28    2
    36    32    26    2
    37    25    26    1
    38    26    27    1
    39    28    27    1
    40    27    35    1
    41    43    42    1
    42    42    41    2
    43    41    36    2
    44    35    36   ar
    45    35    39   ar
    46    46    45    1
    47    45    44    3
    48    36    37   ar
    49    44    37    1
    50    37    38   ar
    51    39    38   ar
    52    38    40    1
