@<TRIPOS>MOLECULE
mol_data/noopt/geoms/mol2/5ee5ee5ee.out
 35 39 0 0 0
SMALL
GASTEIGER

@<TRIPOS>ATOM
      1 C          -2.0792   -1.7080   -0.0002 C.ar    1  LIG1       -0.0071
      2 C          -0.7020   -1.7080   -0.0002 C.ar    1  LIG1        0.0471
      3 C          -0.1766   -0.3757   -0.0002 C.ar    1  LIG1        0.0477
      4 C          -1.1831    0.5643    0.0006 C.ar    1  LIG1        0.0428
      5 S          -2.6937   -0.1528    0.0006 S.2     1  LIG1       -0.0936
      6 H          -2.8374   -2.7640   -0.0008 H       1  LIG1        0.0706
      7 C           0.0503   -2.7682   -0.0004 C.1     1  LIG1       -0.0679
      8 C           0.7454   -3.7478   -0.0006 C.1     1  LIG1       -0.1139
      9 H           1.3646   -4.6205   -0.0007 H       1  LIG1        0.1232
     10 C           1.0969   -0.1143   -0.0009 C.1     1  LIG1       -0.1090
     11 C           2.2735    0.1272   -0.0015 C.2     1  LIG1       -0.0112
     12 H           3.3217    0.3424   -0.0021 H       1  LIG1        0.0712
     13 C          -1.0166    1.8536    0.0014 C.2     1  LIG1        0.0397
     14 C           0.1956    2.5069    0.0205 C.2     1  LIG1        0.0441
     15 C           0.0262    3.9290    0.0147 C.2     1  LIG1        0.0337
     16 C          -1.3056    4.2790   -0.0075 C.3     1  LIG1        0.1104
     17 S          -2.2951    2.9311   -0.0215 S.3     1  LIG1       -0.1033
     18 C           1.3607    1.9305    0.0410 C.1     1  LIG1       -0.1094
     19 C           2.4372    1.3979    0.0600 C.2     1  LIG1       -0.0112
     20 H           3.3961    0.9235    0.0769 H       1  LIG1        0.0712
     21 C           1.0231    4.7632    0.0291 C.1     1  LIG1       -0.1127
     22 C           1.9443    5.5341    0.0424 C.2     1  LIG1       -0.0115
     23 H           2.7648    6.2207    0.0542 H       1  LIG1        0.0712
     24 C          -1.7706    5.4930   -0.0170 C.ar    1  LIG1        0.0291
     25 C          -1.0132    6.6432   -0.0232 C.ar    1  LIG1        0.0443
     26 C          -1.8369    7.8147   -0.0340 C.ar    1  LIG1        0.0468
     27 C          -3.1756    7.4910   -0.0345 C.ar    1  LIG1       -0.0074
     28 S          -3.4074    5.8350   -0.0232 S.2     1  LIG1       -0.0973
     29 H          -4.1608    8.3391   -0.0426 H       1  LIG1        0.0706
     30 C           0.2860    6.6885   -0.0202 C.1     1  LIG1       -0.1093
     31 C           1.4865    6.7303   -0.0173 C.2     1  LIG1       -0.0112
     32 H           2.5558    6.7675   -0.0148 H       1  LIG1        0.0712
     33 C          -1.3549    9.0220   -0.0421 C.1     1  LIG1       -0.0679
     34 C          -0.9095   10.1375   -0.0495 C.1     1  LIG1       -0.1139
     35 H          -0.5127   11.1312   -0.0562 H       1  LIG1        0.1232
@<TRIPOS>BOND
     1    35    34    1
     2    34    33    3
     3    29    27    1
     4    33    26    1
     5    27    26   ar
     6    27    28   ar
     7    26    25   ar
     8    25    30    2
     9    25    24   ar
    10    28    24   ar
    11    17    16    1
    12    17    13    2
    13    30    31    2
    14    31    32    1
    15    31    22    1
    16    24    16    1
    17    16    15    1
    18    12    11    1
    19    11    10    2
    20    11    19    1
    21    10     3    2
    22     6     1    1
    23     9     8    1
    24     8     7    3
    25     7     2    1
    26     1     2   ar
    27     1     5   ar
    28     3     2   ar
    29     3     4   ar
    30     5     4   ar
    31     4    13    1
    32    13    14    1
    33    15    14    1
    34    15    21    2
    35    14    18    2
    36    21    22    2
    37    18    19    2
    38    22    23    1
    39    19    20    1
