@<TRIPOS>MOLECULE
mol_data/noopt/geoms/mol2/5ee5ee5ee-5ee-.out
 46 52 0 0 0
SMALL
GASTEIGER

@<TRIPOS>ATOM
      1 C          -2.0792   -1.7080   -0.0002 C.ar    1  LIG1       -0.0071
      2 C          -0.7020   -1.7080   -0.0002 C.ar    1  LIG1        0.0471
      3 C          -0.1766   -0.3757   -0.0002 C.ar    1  LIG1        0.0477
      4 C          -1.1831    0.5643    0.0006 C.ar    1  LIG1        0.0431
      5 S          -2.6937   -0.1528    0.0006 S.2     1  LIG1       -0.0936
      6 H          -2.8374   -2.7640   -0.0008 H       1  LIG1        0.0706
      7 C           0.0503   -2.7682   -0.0004 C.1     1  LIG1       -0.0679
      8 C           0.7454   -3.7478   -0.0006 C.1     1  LIG1       -0.1139
      9 H           1.3646   -4.6205   -0.0007 H       1  LIG1        0.1232
     10 C           1.0969   -0.1143   -0.0009 C.1     1  LIG1       -0.1090
     11 C           2.2735    0.1272   -0.0015 C.2     1  LIG1       -0.0112
     12 H           3.3217    0.3424   -0.0021 H       1  LIG1        0.0712
     13 C          -1.0166    1.8536    0.0014 C.ar    1  LIG1        0.0436
     14 C           0.1956    2.5069    0.0205 C.ar    1  LIG1        0.0477
     15 C           0.0262    3.9290    0.0147 C.ar    1  LIG1        0.0477
     16 C          -1.3056    4.2790   -0.0075 C.ar    1  LIG1        0.0437
     17 S          -2.2951    2.9311   -0.0215 S.2     1  LIG1       -0.0847
     18 C           1.3607    1.9305    0.0410 C.1     1  LIG1       -0.1090
     19 C           2.4372    1.3979    0.0600 C.2     1  LIG1       -0.0112
     20 H           3.3961    0.9235    0.0769 H       1  LIG1        0.0712
     21 C           1.0231    4.7632    0.0291 C.1     1  LIG1       -0.1090
     22 C           1.9443    5.5341    0.0424 C.2     1  LIG1       -0.0112
     23 H           2.7648    6.2207    0.0542 H       1  LIG1        0.0712
     24 C          -1.7706    5.4930   -0.0170 C.ar    1  LIG1        0.0437
     25 C          -1.0134    6.6433   -0.0043 C.ar    1  LIG1        0.0477
     26 C          -1.8371    7.8147   -0.0210 C.ar    1  LIG1        0.0477
     27 C          -3.1754    7.4910   -0.0446 C.ar    1  LIG1        0.0436
     28 S          -3.4072    5.8350   -0.0470 S.2     1  LIG1       -0.0847
     29 C           0.2856    6.6886    0.0196 C.1     1  LIG1       -0.1090
     30 C           1.4859    6.7305    0.0416 C.2     1  LIG1       -0.0112
     31 H           2.5551    6.7678    0.0613 H       1  LIG1        0.0712
     32 C          -1.3552    9.0221   -0.0141 C.1     1  LIG1       -0.1090
     33 C          -0.9099   10.1377   -0.0078 C.2     1  LIG1       -0.0112
     34 H          -0.5132   11.1314   -0.0022 H       1  LIG1        0.0712
     35 C          -4.1606    8.3390   -0.0631 C.ar    1  LIG1        0.0431
     36 C          -4.0394    9.7108   -0.0749 C.ar    1  LIG1        0.0477
     37 C          -5.3202   10.3513   -0.0953 C.ar    1  LIG1        0.0471
     38 C          -6.3451    9.4313   -0.0971 C.ar    1  LIG1       -0.0071
     39 S          -5.7637    7.8636   -0.0756 S.2     1  LIG1       -0.0936
     40 H          -7.6146    9.7105   -0.1131 H       1  LIG1        0.0706
     41 C          -2.9172   10.3670   -0.0689 C.1     1  LIG1       -0.1090
     42 C          -1.8802   10.9733   -0.0634 C.2     1  LIG1       -0.0112
     43 H          -0.9565   11.5134   -0.0584 H       1  LIG1        0.0712
     44 C          -5.4685   11.6427   -0.1100 C.1     1  LIG1       -0.0679
     45 C          -5.6055   12.8360   -0.1237 C.1     1  LIG1       -0.1139
     46 H          -5.7276   13.8989   -0.1358 H       1  LIG1        0.1232
@<TRIPOS>BOND
     1    46    45    1
     2    45    44    3
     3    40    38    1
     4    44    37    1
     5    38    37   ar
     6    38    39   ar
     7    37    36   ar
     8    39    35   ar
     9    36    41    2
    10    36    35   ar
    11    41    42    2
    12    42    43    1
    13    42    33    1
    14    35    27    1
    15    28    27   ar
    16    28    24   ar
    17    27    26   ar
    18    17    16   ar
    19    17    13   ar
    20    26    32    2
    21    26    25   ar
    22    24    16    2
    23    24    25   ar
    24    32    33    2
    25    33    34    1
    26    16    15   ar
    27    25    29    2
    28    12    11    1
    29    11    10    2
    30    11    19    1
    31    10     3    2
    32     6     1    1
    33     9     8    1
    34     8     7    3
    35     7     2    1
    36     2     3   ar
    37     2     1   ar
    38     3     4   ar
    39     1     5   ar
    40     5     4   ar
    41     4    13    1
    42    13    14   ar
    43    15    14   ar
    44    15    21    2
    45    29    30    2
    46    14    18    2
    47    21    22    2
    48    18    19    2
    49    30    22    1
    50    30    31    1
    51    22    23    1
    52    19    20    1
