@<TRIPOS>MOLECULE
mol_data/noopt/geoms/mol2/5ee5ee5ee-.out
 35 39 0 0 0
SMALL
GASTEIGER

@<TRIPOS>ATOM
      1 C          -2.0792   -1.7080   -0.0002 C.ar    1  LIG1       -0.0071
      2 C          -0.7020   -1.7080   -0.0002 C.ar    1  LIG1        0.0471
      3 C          -0.1766   -0.3757   -0.0002 C.ar    1  LIG1        0.0477
      4 C          -1.1831    0.5643    0.0006 C.ar    1  LIG1        0.0431
      5 S          -2.6937   -0.1528    0.0006 S.2     1  LIG1       -0.0936
      6 H          -2.8374   -2.7640   -0.0008 H       1  LIG1        0.0706
      7 C           0.0503   -2.7682   -0.0004 C.1     1  LIG1       -0.0679
      8 C           0.7454   -3.7478   -0.0006 C.1     1  LIG1       -0.1139
      9 H           1.3646   -4.6205   -0.0007 H       1  LIG1        0.1232
     10 C           1.0969   -0.1143   -0.0009 C.1     1  LIG1       -0.1090
     11 C           2.2735    0.1272   -0.0015 C.2     1  LIG1       -0.0112
     12 H           3.3217    0.3424   -0.0021 H       1  LIG1        0.0712
     13 C          -1.0166    1.8536    0.0014 C.ar    1  LIG1        0.0436
     14 C           0.1956    2.5069    0.0205 C.ar    1  LIG1        0.0477
     15 C           0.0262    3.9290    0.0147 C.ar    1  LIG1        0.0477
     16 C          -1.3056    4.2790   -0.0075 C.ar    1  LIG1        0.0436
     17 S          -2.2951    2.9311   -0.0215 S.2     1  LIG1       -0.0847
     18 C           1.3607    1.9305    0.0410 C.1     1  LIG1       -0.1090
     19 C           2.4372    1.3979    0.0600 C.2     1  LIG1       -0.0112
     20 H           3.3961    0.9235    0.0769 H       1  LIG1        0.0712
     21 C           1.0231    4.7632    0.0291 C.1     1  LIG1       -0.1090
     22 C           1.9443    5.5341    0.0424 C.2     1  LIG1       -0.0112
     23 H           2.7648    6.2207    0.0542 H       1  LIG1        0.0712
     24 C          -1.7706    5.4930   -0.0170 C.ar    1  LIG1        0.0431
     25 C          -1.0134    6.6433   -0.0043 C.ar    1  LIG1        0.0477
     26 C          -1.8371    7.8147   -0.0210 C.ar    1  LIG1        0.0471
     27 C          -3.1754    7.4910   -0.0446 C.ar    1  LIG1       -0.0071
     28 S          -3.4072    5.8350   -0.0470 S.2     1  LIG1       -0.0936
     29 H          -4.1606    8.3390   -0.0631 H       1  LIG1        0.0706
     30 C           0.2856    6.6886    0.0196 C.1     1  LIG1       -0.1090
     31 C           1.4859    6.7305    0.0416 C.2     1  LIG1       -0.0112
     32 H           2.5551    6.7678    0.0613 H       1  LIG1        0.0712
     33 C          -1.3552    9.0221   -0.0141 C.1     1  LIG1       -0.0679
     34 C          -0.9099   10.1377   -0.0078 C.1     1  LIG1       -0.1139
     35 H          -0.5132   11.1314   -0.0022 H       1  LIG1        0.1232
@<TRIPOS>BOND
     1    29    27    1
     2    28    27   ar
     3    28    24   ar
     4    27    26   ar
     5    17    16   ar
     6    17    13   ar
     7    26    33    1
     8    26    25   ar
     9    24    16    2
    10    24    25   ar
    11    33    34    3
    12    34    35    1
    13    16    15   ar
    14    25    30    2
    15    12    11    1
    16    11    10    2
    17    11    19    1
    18    10     3    2
    19     6     1    1
    20     9     8    1
    21     8     7    3
    22     7     2    1
    23     1     2   ar
    24     1     5   ar
    25     3     2   ar
    26     3     4   ar
    27     5     4   ar
    28     4    13    1
    29    13    14   ar
    30    15    14   ar
    31    15    21    2
    32    30    31    2
    33    14    18    2
    34    21    22    2
    35    18    19    2
    36    31    22    1
    37    31    32    1
    38    22    23    1
    39    19    20    1
