@<TRIPOS>MOLECULE
mol_data/noopt/geoms/mol2/5ee5ee5ee-5ee.out
 46 52 0 0 0
SMALL
GASTEIGER

@<TRIPOS>ATOM
      1 C          -2.0792   -1.7080   -0.0002 C.ar    1  LIG1       -0.0071
      2 C          -0.7020   -1.7080   -0.0002 C.ar    1  LIG1        0.0471
      3 C          -0.1766   -0.3757   -0.0002 C.ar    1  LIG1        0.0477
      4 C          -1.1831    0.5643    0.0006 C.ar    1  LIG1        0.0431
      5 S          -2.6937   -0.1528    0.0006 S.2     1  LIG1       -0.0936
      6 H          -2.8374   -2.7640   -0.0008 H       1  LIG1        0.0706
      7 C           0.0503   -2.7682   -0.0004 C.1     1  LIG1       -0.0679
      8 C           0.7454   -3.7478   -0.0006 C.1     1  LIG1       -0.1139
      9 H           1.3646   -4.6205   -0.0007 H       1  LIG1        0.1232
     10 C           1.0969   -0.1143   -0.0009 C.1     1  LIG1       -0.1090
     11 C           2.2735    0.1272   -0.0015 C.2     1  LIG1       -0.0112
     12 H           3.3217    0.3424   -0.0021 H       1  LIG1        0.0712
     13 C          -1.0166    1.8536    0.0014 C.ar    1  LIG1        0.0436
     14 C           0.1956    2.5069    0.0205 C.ar    1  LIG1        0.0477
     15 C           0.0262    3.9290    0.0147 C.ar    1  LIG1        0.0477
     16 C          -1.3056    4.2790   -0.0075 C.ar    1  LIG1        0.0437
     17 S          -2.2951    2.9311   -0.0215 S.2     1  LIG1       -0.0847
     18 C           1.3607    1.9305    0.0410 C.1     1  LIG1       -0.1090
     19 C           2.4372    1.3979    0.0600 C.2     1  LIG1       -0.0112
     20 H           3.3961    0.9235    0.0769 H       1  LIG1        0.0712
     21 C           1.0231    4.7632    0.0291 C.1     1  LIG1       -0.1090
     22 C           1.9443    5.5341    0.0424 C.2     1  LIG1       -0.0112
     23 H           2.7648    6.2207    0.0542 H       1  LIG1        0.0712
     24 C          -1.7706    5.4930   -0.0170 C.ar    1  LIG1        0.0437
     25 C          -1.0134    6.6433   -0.0043 C.ar    1  LIG1        0.0477
     26 C          -1.8371    7.8147   -0.0210 C.ar    1  LIG1        0.0477
     27 C          -3.1754    7.4910   -0.0446 C.ar    1  LIG1        0.0436
     28 S          -3.4072    5.8350   -0.0470 S.2     1  LIG1       -0.0847
     29 C           0.2856    6.6886    0.0196 C.1     1  LIG1       -0.1090
     30 C           1.4859    6.7305    0.0416 C.2     1  LIG1       -0.0112
     31 H           2.5551    6.7678    0.0613 H       1  LIG1        0.0712
     32 C          -1.3552    9.0221   -0.0141 C.1     1  LIG1       -0.1090
     33 C          -0.9099   10.1377   -0.0078 C.2     1  LIG1       -0.0112
     34 H          -0.5132   11.1314   -0.0022 H       1  LIG1        0.0712
     35 C          -4.1606    8.3390   -0.0631 C.ar    1  LIG1        0.0431
     36 C          -4.0397    9.7109   -0.0560 C.ar    1  LIG1        0.0477
     37 C          -5.3204   10.3513   -0.0823 C.ar    1  LIG1        0.0471
     38 C          -6.3449    9.4313   -0.1072 C.ar    1  LIG1       -0.0071
     39 S          -5.7633    7.8636   -0.0994 S.2     1  LIG1       -0.0936
     40 H          -7.6143    9.7105   -0.1337 H       1  LIG1        0.0706
     41 C          -2.9178   10.3671   -0.0292 C.1     1  LIG1       -0.1090
     42 C          -1.8812   10.9735   -0.0044 C.2     1  LIG1       -0.0112
     43 H          -0.9578   11.5136    0.0176 H       1  LIG1        0.0712
     44 C          -5.4689   11.6428   -0.0821 C.1     1  LIG1       -0.0679
     45 C          -5.6062   12.8362   -0.0819 C.1     1  LIG1       -0.1139
     46 H          -5.7284   13.8991   -0.0818 H       1  LIG1        0.1232
@<TRIPOS>BOND
     1    40    38    1
     2    38    39   ar
     3    38    37   ar
     4    39    35   ar
     5    37    44    1
     6    37    36   ar
     7    44    45    3
     8    45    46    1
     9    35    36   ar
    10    35    27    1
    11    36    41    2
    12    28    27   ar
    13    28    24   ar
    14    27    26   ar
    15    41    42    2
    16    17    16   ar
    17    17    13   ar
    18    26    32    2
    19    26    25   ar
    20    24    16    2
    21    24    25   ar
    22    32    33    2
    23    33    42    1
    24    33    34    1
    25    16    15   ar
    26    42    43    1
    27    25    29    2
    28    12    11    1
    29    11    10    2
    30    11    19    1
    31    10     3    2
    32     6     1    1
    33     9     8    1
    34     8     7    3
    35     7     2    1
    36     2     3   ar
    37     2     1   ar
    38     3     4   ar
    39     1     5   ar
    40     5     4   ar
    41     4    13    1
    42    13    14   ar
    43    15    14   ar
    44    15    21    2
    45    29    30    2
    46    14    18    2
    47    21    22    2
    48    18    19    2
    49    30    22    1
    50    30    31    1
    51    22    23    1
    52    19    20    1
