@<TRIPOS>MOLECULE
mol_data/noopt/geoms/mol2/5ee5ee-.out
 24 26 0 0 0
SMALL
GASTEIGER

@<TRIPOS>ATOM
      1 C          -2.0792   -1.7080   -0.0002 C.ar    1  LIG1       -0.0071
      2 C          -0.7020   -1.7080   -0.0002 C.ar    1  LIG1        0.0471
      3 C          -0.1766   -0.3757   -0.0002 C.ar    1  LIG1        0.0477
      4 C          -1.1831    0.5643    0.0006 C.ar    1  LIG1        0.0431
      5 S          -2.6937   -0.1528    0.0006 S.2     1  LIG1       -0.0936
      6 H          -2.8374   -2.7640   -0.0008 H       1  LIG1        0.0706
      7 C           0.0503   -2.7682   -0.0004 C.1     1  LIG1       -0.0679
      8 C           0.7454   -3.7478   -0.0006 C.1     1  LIG1       -0.1139
      9 H           1.3646   -4.6205   -0.0007 H       1  LIG1        0.1232
     10 C           1.0969   -0.1143   -0.0009 C.1     1  LIG1       -0.1090
     11 C           2.2735    0.1272   -0.0015 C.2     1  LIG1       -0.0112
     12 H           3.3217    0.3424   -0.0021 H       1  LIG1        0.0712
     13 C          -1.0166    1.8536    0.0014 C.ar    1  LIG1        0.0431
     14 C           0.1958    2.5069    0.0015 C.ar    1  LIG1        0.0477
     15 C           0.0263    3.9290    0.0017 C.ar    1  LIG1        0.0471
     16 C          -1.3057    4.2790    0.0026 C.ar    1  LIG1       -0.0071
     17 S          -2.2953    2.9311    0.0023 S.2     1  LIG1       -0.0936
     18 H          -1.7708    5.4930    0.0035 H       1  LIG1        0.0706
     19 C           1.3610    1.9305    0.0013 C.1     1  LIG1       -0.1090
     20 C           2.4376    1.3979    0.0010 C.2     1  LIG1       -0.0112
     21 H           3.3967    0.9234    0.0008 H       1  LIG1        0.0712
     22 C           1.0233    4.7632    0.0012 C.1     1  LIG1       -0.0679
     23 C           1.9446    5.5340    0.0007 C.1     1  LIG1       -0.1139
     24 H           2.7652    6.2207    0.0002 H       1  LIG1        0.1232
@<TRIPOS>BOND
     1    12    11    1
     2    11    10    2
     3    11    20    1
     4    10     3    2
     5     6     1    1
     6     9     8    1
     7     8     7    3
     8     7     2    1
     9     2     3   ar
    10     2     1   ar
    11     3     4   ar
    12     1     5   ar
    13    24    23    1
    14     5     4   ar
    15     4    13    1
    16    23    22    3
    17    21    20    1
    18    20    19    2
    19    22    15    1
    20    19    14    2
    21    13    14   ar
    22    13    17   ar
    23    14    15   ar
    24    15    16   ar
    25    17    16   ar
    26    16    18    1
