@<TRIPOS>MOLECULE
mol_data/noopt/geoms/mol2/5ee5ee-5ee-.out
 35 39 0 0 0
SMALL
GASTEIGER

@<TRIPOS>ATOM
      1 C          -2.0792   -1.7080   -0.0002 C.ar    1  LIG1       -0.0071
      2 C          -0.7020   -1.7080   -0.0002 C.ar    1  LIG1        0.0471
      3 C          -0.1766   -0.3757   -0.0002 C.ar    1  LIG1        0.0477
      4 C          -1.1831    0.5643    0.0006 C.ar    1  LIG1        0.0431
      5 S          -2.6937   -0.1528    0.0006 S.2     1  LIG1       -0.0936
      6 H          -2.8374   -2.7640   -0.0008 H       1  LIG1        0.0706
      7 C           0.0503   -2.7682   -0.0004 C.1     1  LIG1       -0.0679
      8 C           0.7454   -3.7478   -0.0006 C.1     1  LIG1       -0.1139
      9 H           1.3646   -4.6205   -0.0007 H       1  LIG1        0.1232
     10 C           1.0969   -0.1143   -0.0009 C.1     1  LIG1       -0.1090
     11 C           2.2735    0.1272   -0.0015 C.2     1  LIG1       -0.0112
     12 H           3.3217    0.3424   -0.0021 H       1  LIG1        0.0712
     13 C          -1.0166    1.8536    0.0014 C.ar    1  LIG1        0.0436
     14 C           0.1958    2.5069    0.0015 C.ar    1  LIG1        0.0477
     15 C           0.0263    3.9290    0.0017 C.ar    1  LIG1        0.0477
     16 C          -1.3057    4.2790    0.0026 C.ar    1  LIG1        0.0436
     17 S          -2.2953    2.9311    0.0023 S.2     1  LIG1       -0.0847
     18 C           1.3610    1.9305    0.0013 C.1     1  LIG1       -0.1090
     19 C           2.4376    1.3979    0.0010 C.2     1  LIG1       -0.0112
     20 H           3.3967    0.9234    0.0008 H       1  LIG1        0.0712
     21 C           1.0233    4.7632    0.0012 C.1     1  LIG1       -0.1090
     22 C           1.9446    5.5340    0.0007 C.2     1  LIG1       -0.0112
     23 H           2.7652    6.2207    0.0002 H       1  LIG1        0.0712
     24 C          -1.7708    5.4930    0.0035 C.ar    1  LIG1        0.0431
     25 C          -1.0136    6.6432    0.0227 C.ar    1  LIG1        0.0477
     26 C          -1.8374    7.8147    0.0172 C.ar    1  LIG1        0.0471
     27 C          -3.1758    7.4910   -0.0051 C.ar    1  LIG1       -0.0071
     28 S          -3.4074    5.8351   -0.0192 S.2     1  LIG1       -0.0936
     29 H          -4.1610    8.3391   -0.0144 H       1  LIG1        0.0706
     30 C           0.2855    6.6885    0.0432 C.1     1  LIG1       -0.1090
     31 C           1.4858    6.7303    0.0621 C.2     1  LIG1       -0.0112
     32 H           2.5550    6.7675    0.0790 H       1  LIG1        0.0712
     33 C          -1.3555    9.0220    0.0317 C.1     1  LIG1       -0.0679
     34 C          -0.9102   10.1376    0.0451 C.1     1  LIG1       -0.1139
     35 H          -0.5136   11.1313    0.0570 H       1  LIG1        0.1232
@<TRIPOS>BOND
     1    28    27   ar
     2    28    24   ar
     3    29    27    1
     4    27    26   ar
     5    12    11    1
     6    11    10    2
     7    11    19    1
     8    10     3    2
     9     6     1    1
    10     9     8    1
    11     8     7    3
    12     7     2    1
    13     1     2   ar
    14     1     5   ar
    15     3     2   ar
    16     3     4   ar
    17    23    22    1
    18     5     4   ar
    19     4    13    2
    20    22    21    2
    21    22    31    1
    22    20    19    1
    23    19    18    2
    24    21    15    2
    25    18    14    2
    26    13    14   ar
    27    13    17   ar
    28    14    15   ar
    29    15    16   ar
    30    17    16   ar
    31    16    24    1
    32    24    25   ar
    33    26    25   ar
    34    26    33    1
    35    25    30    2
    36    33    34    3
    37    30    31    2
    38    34    35    1
    39    31    32    1
