@<TRIPOS>MOLECULE
mol_data/noopt/geoms/mol2/5ee5ee-5ee.out
 35 39 0 0 0
SMALL
GASTEIGER

@<TRIPOS>ATOM
      1 C          -2.0792   -1.7080   -0.0002 C.ar    1  LIG1       -0.0071
      2 C          -0.7020   -1.7080   -0.0002 C.ar    1  LIG1        0.0471
      3 C          -0.1766   -0.3757   -0.0002 C.ar    1  LIG1        0.0477
      4 C          -1.1831    0.5643    0.0006 C.ar    1  LIG1        0.0431
      5 S          -2.6937   -0.1528    0.0006 S.2     1  LIG1       -0.0936
      6 H          -2.8374   -2.7640   -0.0008 H       1  LIG1        0.0706
      7 C           0.0503   -2.7682   -0.0004 C.1     1  LIG1       -0.0679
      8 C           0.7454   -3.7478   -0.0006 C.1     1  LIG1       -0.1139
      9 H           1.3646   -4.6205   -0.0007 H       1  LIG1        0.1232
     10 C           1.0969   -0.1143   -0.0009 C.1     1  LIG1       -0.1090
     11 C           2.2735    0.1272   -0.0015 C.2     1  LIG1       -0.0112
     12 H           3.3217    0.3424   -0.0021 H       1  LIG1        0.0712
     13 C          -1.0166    1.8536    0.0014 C.ar    1  LIG1        0.0436
     14 C           0.1958    2.5069    0.0015 C.ar    1  LIG1        0.0477
     15 C           0.0263    3.9290    0.0017 C.ar    1  LIG1        0.0477
     16 C          -1.3057    4.2790    0.0026 C.ar    1  LIG1        0.0436
     17 S          -2.2953    2.9311    0.0023 S.2     1  LIG1       -0.0847
     18 C           1.3610    1.9305    0.0013 C.1     1  LIG1       -0.1090
     19 C           2.4376    1.3979    0.0010 C.2     1  LIG1       -0.0112
     20 H           3.3967    0.9234    0.0008 H       1  LIG1        0.0712
     21 C           1.0233    4.7632    0.0012 C.1     1  LIG1       -0.1090
     22 C           1.9446    5.5340    0.0007 C.2     1  LIG1       -0.0112
     23 H           2.7652    6.2207    0.0002 H       1  LIG1        0.0712
     24 C          -1.7708    5.4930    0.0035 C.ar    1  LIG1        0.0431
     25 C          -1.0134    6.6433    0.0038 C.ar    1  LIG1        0.0477
     26 C          -1.8373    7.8147    0.0042 C.ar    1  LIG1        0.0471
     27 C          -3.1759    7.4910    0.0050 C.ar    1  LIG1       -0.0071
     28 S          -3.4076    5.8350    0.0046 S.2     1  LIG1       -0.0936
     29 H          -4.1612    8.3391    0.0062 H       1  LIG1        0.0706
     30 C           0.2858    6.6886    0.0035 C.1     1  LIG1       -0.1090
     31 C           1.4863    6.7305    0.0032 C.2     1  LIG1       -0.0112
     32 H           2.5556    6.7678    0.0029 H       1  LIG1        0.0712
     33 C          -1.3553    9.0221    0.0038 C.1     1  LIG1       -0.0679
     34 C          -0.9100   10.1377    0.0034 C.1     1  LIG1       -0.1139
     35 H          -0.5133   11.1315    0.0030 H       1  LIG1        0.1232
@<TRIPOS>BOND
     1    12    11    1
     2    11    10    2
     3    11    19    1
     4    10     3    2
     5     6     1    1
     6     9     8    1
     7     8     7    3
     8     7     2    1
     9     1     2   ar
    10     1     5   ar
    11     3     2   ar
    12     3     4   ar
    13    23    22    1
    14     5     4   ar
    15     4    13    2
    16    22    21    2
    17    22    31    1
    18    20    19    1
    19    19    18    2
    20    21    15    2
    21    18    14    2
    22    13    14   ar
    23    13    17   ar
    24    14    15   ar
    25    15    16   ar
    26    17    16   ar
    27    16    24    1
    28    32    31    1
    29    35    34    1
    30    31    30    2
    31    34    33    3
    32    30    25    2
    33    24    25   ar
    34    24    28   ar
    35    33    26    1
    36    25    26   ar
    37    26    27   ar
    38    28    27   ar
    39    27    29    1
