@<TRIPOS>MOLECULE
mol_data/noopt/geoms/mol2/5ef5ef5ef.out
 32 34 0 0 0
SMALL
GASTEIGER

@<TRIPOS>ATOM
      1 C          -2.0792   -1.7080   -0.0002 C.ar    1  LIG1       -0.0047
      2 C          -0.7020   -1.7080   -0.0002 C.ar    1  LIG1        0.0737
      3 C          -0.1766   -0.3757   -0.0002 C.ar    1  LIG1        0.1474
      4 C          -1.1831    0.5643    0.0006 C.ar    1  LIG1        0.0698
      5 S          -2.6937   -0.1528    0.0006 S.2     1  LIG1       -0.0911
      6 H          -2.8374   -2.7640   -0.0008 H       1  LIG1        0.0707
      7 C           0.0503   -2.7682   -0.0004 C.1     1  LIG1       -0.0655
      8 C           0.7454   -3.7478   -0.0006 C.1     1  LIG1       -0.1138
      9 H           1.3646   -4.6205   -0.0007 H       1  LIG1        0.1232
     10 O           1.0969   -0.1143   -0.0009 O.3     1  LIG1       -0.5044
     11 H           1.2288    0.8366   -0.0011 H       1  LIG1        0.2922
     12 C          -1.0166    1.8536    0.0014 C.ar    1  LIG1        0.0490
     13 C           0.1956    2.5069    0.0205 C.ar    1  LIG1        0.0820
     14 C           0.0262    3.9290    0.0147 C.ar    1  LIG1        0.1481
     15 C          -1.3056    4.2790   -0.0075 C.ar    1  LIG1        0.0704
     16 S          -2.2951    2.9311   -0.0215 S.2     1  LIG1       -0.0820
     17 C           1.3607    1.9305    0.0410 C.1     1  LIG1       -0.0648
     18 C           2.4372    1.3979    0.0600 C.1     1  LIG1       -0.1138
     19 H           3.3961    0.9235    0.0769 H       1  LIG1        0.1232
     20 O           1.0231    4.7633    0.0291 O.3     1  LIG1       -0.5044
     21 H           0.6881    5.6629    0.0327 H       1  LIG1        0.2922
     22 C          -1.7706    5.4930   -0.0170 C.ar    1  LIG1        0.0484
     23 C          -1.0132    6.6432   -0.0232 C.ar    1  LIG1        0.0814
     24 C          -1.8369    7.8147   -0.0340 C.ar    1  LIG1        0.1398
     25 C          -3.1756    7.4910   -0.0345 C.ar    1  LIG1        0.0190
     26 S          -3.4074    5.8350   -0.0232 S.2     1  LIG1       -0.0910
     27 H          -4.1608    8.3391   -0.0426 H       1  LIG1        0.0731
     28 C           0.2860    6.6885   -0.0202 C.1     1  LIG1       -0.0648
     29 C           1.4865    6.7303   -0.0173 C.1     1  LIG1       -0.1138
     30 H           2.5558    6.7675   -0.0148 H       1  LIG1        0.1232
     31 O          -1.3549    9.0220   -0.0421 O.3     1  LIG1       -0.5050
     32 H          -2.0765    9.6551   -0.0441 H       1  LIG1        0.2922
@<TRIPOS>BOND
     1    32    31    1
     2    27    25    1
     3    31    24    1
     4    25    24   ar
     5    25    26   ar
     6    24    23   ar
     7    23    28    1
     8    23    22   ar
     9    26    22   ar
    10    16    15   ar
    11    16    12   ar
    12    28    29    3
    13    29    30    1
    14    22    15    1
    15    15    14   ar
    16    11    10    1
    17    10     3    1
    18     6     1    1
    19     9     8    1
    20     8     7    3
    21     7     2    1
    22     1     2   ar
    23     1     5   ar
    24     3     2   ar
    25     3     4   ar
    26     5     4   ar
    27     4    12    1
    28    12    13   ar
    29    14    13   ar
    30    14    20    1
    31    13    17    1
    32    20    21    1
    33    17    18    3
    34    18    19    1
