@<TRIPOS>MOLECULE
mol_data/noopt/geoms/mol2/5ef5ef-5ef-5ef-.out
 42 45 0 0 0
SMALL
GASTEIGER

@<TRIPOS>ATOM
      1 C          -2.0792   -1.7080   -0.0002 C.ar    1  LIG1       -0.0047
      2 C          -0.7020   -1.7080   -0.0002 C.ar    1  LIG1        0.0737
      3 C          -0.1766   -0.3757   -0.0002 C.ar    1  LIG1        0.1474
      4 C          -1.1831    0.5643    0.0006 C.ar    1  LIG1        0.0698
      5 S          -2.6937   -0.1528    0.0006 S.2     1  LIG1       -0.0911
      6 H          -2.8374   -2.7640   -0.0008 H       1  LIG1        0.0707
      7 C           0.0503   -2.7682   -0.0004 C.1     1  LIG1       -0.0655
      8 C           0.7454   -3.7478   -0.0006 C.1     1  LIG1       -0.1138
      9 H           1.3646   -4.6205   -0.0007 H       1  LIG1        0.1232
     10 O           1.0969   -0.1143   -0.0009 O.3     1  LIG1       -0.5044
     11 H           1.2288    0.8366   -0.0011 H       1  LIG1        0.2922
     12 C          -1.0166    1.8536    0.0014 C.ar    1  LIG1        0.0490
     13 C           0.1958    2.5069    0.0015 C.ar    1  LIG1        0.0820
     14 C           0.0263    3.9290    0.0017 C.ar    1  LIG1        0.1481
     15 C          -1.3057    4.2790    0.0026 C.ar    1  LIG1        0.0704
     16 S          -2.2953    2.9311    0.0023 S.2     1  LIG1       -0.0820
     17 C           1.3610    1.9305    0.0013 C.1     1  LIG1       -0.0648
     18 C           2.4376    1.3979    0.0010 C.1     1  LIG1       -0.1138
     19 H           3.3967    0.9234    0.0008 H       1  LIG1        0.1232
     20 O           1.0233    4.7633    0.0012 O.3     1  LIG1       -0.5044
     21 H           0.6884    5.6629    0.0010 H       1  LIG1        0.2922
     22 C          -1.7708    5.4930    0.0035 C.ar    1  LIG1        0.0491
     23 C          -1.0136    6.6432    0.0227 C.ar    1  LIG1        0.0820
     24 C          -1.8374    7.8147    0.0172 C.ar    1  LIG1        0.1481
     25 C          -3.1758    7.4910   -0.0051 C.ar    1  LIG1        0.0704
     26 S          -3.4074    5.8351   -0.0192 S.2     1  LIG1       -0.0820
     27 C           0.2855    6.6885    0.0432 C.1     1  LIG1       -0.0648
     28 C           1.4858    6.7303    0.0621 C.1     1  LIG1       -0.1138
     29 H           2.5550    6.7675    0.0790 H       1  LIG1        0.1232
     30 O          -1.3555    9.0221    0.0317 O.3     1  LIG1       -0.5044
     31 H          -2.0772    9.6551    0.0353 H       1  LIG1        0.2922
     32 C          -4.1610    8.3391   -0.0144 C.ar    1  LIG1        0.0484
     33 C          -4.0399    9.7110   -0.0205 C.ar    1  LIG1        0.0814
     34 C          -5.3208   10.3515   -0.0311 C.ar    1  LIG1        0.1398
     35 C          -6.3457    9.4315   -0.0316 C.ar    1  LIG1        0.0190
     36 S          -5.7642    7.8638   -0.0205 S.2     1  LIG1       -0.0910
     37 H          -7.6153    9.7107   -0.0396 H       1  LIG1        0.0731
     38 C          -2.9176   10.3672   -0.0175 C.1     1  LIG1       -0.0648
     39 C          -1.8807   10.9735   -0.0147 C.1     1  LIG1       -0.1138
     40 H          -0.9570   11.5136   -0.0122 H       1  LIG1        0.1232
     41 O          -5.4692   11.6430   -0.0391 O.3     1  LIG1       -0.5050
     42 H          -6.4048   11.8580   -0.0410 H       1  LIG1        0.2922
@<TRIPOS>BOND
     1    42    41    1
     2    37    35    1
     3    41    34    1
     4    35    34   ar
     5    35    36   ar
     6    34    33   ar
     7    33    38    1
     8    33    32   ar
     9    36    32   ar
    10    26    25   ar
    11    26    22   ar
    12    38    39    3
    13    39    40    1
    14    32    25    1
    15    25    24   ar
    16    11    10    1
    17    10     3    1
    18     6     1    1
    19     9     8    1
    20     8     7    3
    21     7     2    1
    22     1     2   ar
    23     1     5   ar
    24     2     3   ar
    25     3     4   ar
    26     4     5   ar
    27     4    12    1
    28    19    18    1
    29    18    17    3
    30    21    20    1
    31    20    14    1
    32    17    13    1
    33    12    13   ar
    34    12    16   ar
    35    13    14   ar
    36    14    15   ar
    37    16    15   ar
    38    15    22    1
    39    22    23   ar
    40    24    23   ar
    41    24    30    1
    42    23    27    1
    43    30    31    1
    44    27    28    3
    45    28    29    1
