@<TRIPOS>MOLECULE
mol_data/noopt/geoms/mol2/5ef5ef.out
 22 23 0 0 0
SMALL
GASTEIGER

@<TRIPOS>ATOM
      1 C          -2.0792   -1.7080   -0.0002 C.ar    1  LIG1       -0.0047
      2 C          -0.7020   -1.7080   -0.0002 C.ar    1  LIG1        0.0737
      3 C          -0.1766   -0.3757   -0.0002 C.ar    1  LIG1        0.1474
      4 C          -1.1831    0.5643    0.0006 C.ar    1  LIG1        0.0698
      5 S          -2.6937   -0.1528    0.0006 S.2     1  LIG1       -0.0911
      6 H          -2.8374   -2.7640   -0.0008 H       1  LIG1        0.0707
      7 C           0.0503   -2.7682   -0.0004 C.1     1  LIG1       -0.0655
      8 C           0.7454   -3.7478   -0.0006 C.1     1  LIG1       -0.1138
      9 H           1.3646   -4.6205   -0.0007 H       1  LIG1        0.1232
     10 O           1.0969   -0.1143   -0.0009 O.3     1  LIG1       -0.5044
     11 H           1.2288    0.8366   -0.0011 H       1  LIG1        0.2922
     12 C          -1.0166    1.8536    0.0014 C.ar    1  LIG1        0.0484
     13 C           0.1956    2.5069    0.0205 C.ar    1  LIG1        0.0814
     14 C           0.0262    3.9290    0.0147 C.ar    1  LIG1        0.1398
     15 C          -1.3056    4.2790   -0.0075 C.ar    1  LIG1        0.0190
     16 S          -2.2951    2.9311   -0.0215 S.2     1  LIG1       -0.0910
     17 H          -1.7706    5.4930   -0.0170 H       1  LIG1        0.0731
     18 C           1.3607    1.9305    0.0410 C.1     1  LIG1       -0.0648
     19 C           2.4372    1.3979    0.0600 C.1     1  LIG1       -0.1138
     20 H           3.3961    0.9235    0.0769 H       1  LIG1        0.1232
     21 O           1.0231    4.7633    0.0291 O.3     1  LIG1       -0.5050
     22 H           0.6881    5.6629    0.0327 H       1  LIG1        0.2922
@<TRIPOS>BOND
     1    16    15   ar
     2    16    12   ar
     3    17    15    1
     4    15    14   ar
     5    11    10    1
     6    10     3    1
     7     6     1    1
     8     9     8    1
     9     8     7    3
    10     7     2    1
    11     2     3   ar
    12     2     1   ar
    13     3     4   ar
    14     1     5   ar
    15     4     5   ar
    16     4    12    1
    17    12    13   ar
    18    14    13   ar
    19    14    21    1
    20    13    18    1
    21    21    22    1
    22    18    19    3
    23    19    20    1
