@<TRIPOS>MOLECULE
mol_data/noopt/geoms/mol2/5ef5ef5ef5ef.out
 42 45 0 0 0
SMALL
GASTEIGER

@<TRIPOS>ATOM
      1 C          -2.0792   -1.7080   -0.0002 C.ar    1  LIG1       -0.0047
      2 C          -0.7020   -1.7080   -0.0002 C.ar    1  LIG1        0.0737
      3 C          -0.1766   -0.3757   -0.0002 C.ar    1  LIG1        0.1474
      4 C          -1.1831    0.5643    0.0006 C.ar    1  LIG1        0.0698
      5 S          -2.6937   -0.1528    0.0006 S.2     1  LIG1       -0.0911
      6 H          -2.8374   -2.7640   -0.0008 H       1  LIG1        0.0707
      7 C           0.0503   -2.7682   -0.0004 C.1     1  LIG1       -0.0655
      8 C           0.7454   -3.7478   -0.0006 C.1     1  LIG1       -0.1138
      9 H           1.3646   -4.6205   -0.0007 H       1  LIG1        0.1232
     10 O           1.0969   -0.1143   -0.0009 O.3     1  LIG1       -0.5044
     11 H           1.2288    0.8366   -0.0011 H       1  LIG1        0.2922
     12 C          -1.0166    1.8536    0.0014 C.ar    1  LIG1        0.0490
     13 C           0.1956    2.5069    0.0205 C.ar    1  LIG1        0.0820
     14 C           0.0262    3.9290    0.0147 C.ar    1  LIG1        0.1481
     15 C          -1.3056    4.2790   -0.0075 C.ar    1  LIG1        0.0704
     16 S          -2.2951    2.9311   -0.0215 S.2     1  LIG1       -0.0820
     17 C           1.3607    1.9305    0.0410 C.1     1  LIG1       -0.0648
     18 C           2.4372    1.3979    0.0600 C.1     1  LIG1       -0.1138
     19 H           3.3961    0.9235    0.0769 H       1  LIG1        0.1232
     20 O           1.0231    4.7633    0.0291 O.3     1  LIG1       -0.5044
     21 H           0.6881    5.6629    0.0327 H       1  LIG1        0.2922
     22 C          -1.7706    5.4930   -0.0170 C.ar    1  LIG1        0.0491
     23 C          -1.0132    6.6432   -0.0232 C.ar    1  LIG1        0.0820
     24 C          -1.8369    7.8147   -0.0340 C.ar    1  LIG1        0.1481
     25 C          -3.1756    7.4910   -0.0345 C.ar    1  LIG1        0.0704
     26 S          -3.4074    5.8350   -0.0232 S.2     1  LIG1       -0.0820
     27 C           0.2860    6.6885   -0.0202 C.1     1  LIG1       -0.0648
     28 C           1.4865    6.7303   -0.0173 C.1     1  LIG1       -0.1138
     29 H           2.5558    6.7675   -0.0148 H       1  LIG1        0.1232
     30 O          -1.3549    9.0220   -0.0421 O.3     1  LIG1       -0.5044
     31 H          -2.0765    9.6551   -0.0441 H       1  LIG1        0.2922
     32 C          -4.1608    8.3391   -0.0426 C.ar    1  LIG1        0.0484
     33 C          -4.0399    9.7109   -0.0290 C.ar    1  LIG1        0.0814
     34 C          -5.3207   10.3514   -0.0442 C.ar    1  LIG1        0.1398
     35 C          -6.3454    9.4315   -0.0677 C.ar    1  LIG1        0.0190
     36 S          -5.7637    7.8638   -0.0716 S.2     1  LIG1       -0.0910
     37 H          -7.6149    9.7107   -0.0849 H       1  LIG1        0.0731
     38 C          -2.9179   10.3671   -0.0056 C.1     1  LIG1       -0.0648
     39 C          -1.8811   10.9733    0.0160 C.1     1  LIG1       -0.1138
     40 H          -0.9576   11.5134    0.0353 H       1  LIG1        0.1232
     41 O          -5.4693   11.6429   -0.0363 O.3     1  LIG1       -0.5050
     42 H          -6.4049   11.8578   -0.0344 H       1  LIG1        0.2922
@<TRIPOS>BOND
     1    37    35    1
     2    36    35   ar
     3    36    32   ar
     4    35    34   ar
     5    34    41    1
     6    34    33   ar
     7    31    30    1
     8    32    25    1
     9    32    33   ar
    10    30    24    1
    11    41    42    1
    12    25    24   ar
    13    25    26   ar
    14    24    23   ar
    15    33    38    1
    16    23    27    1
    17    23    22   ar
    18    26    22   ar
    19    16    15   ar
    20    16    12   ar
    21    27    28    3
    22    28    29    1
    23    22    15    1
    24    15    14   ar
    25    38    39    3
    26    11    10    1
    27    10     3    1
    28     6     1    1
    29     9     8    1
    30     8     7    3
    31     7     2    1
    32     2     3   ar
    33     2     1   ar
    34     3     4   ar
    35     1     5   ar
    36     5     4   ar
    37     4    12    1
    38    12    13   ar
    39    14    13   ar
    40    14    20    1
    41    39    40    1
    42    13    17    1
    43    20    21    1
    44    17    18    3
    45    18    19    1
