@<TRIPOS>MOLECULE
mol_data/noopt/geoms/mol2/5ef5ef5ef-5ef-.out
 42 45 0 0 0
SMALL
GASTEIGER

@<TRIPOS>ATOM
      1 C          -2.0792   -1.7080   -0.0002 C.ar    1  LIG1       -0.0047
      2 C          -0.7020   -1.7080   -0.0002 C.ar    1  LIG1        0.0737
      3 C          -0.1766   -0.3757   -0.0002 C.ar    1  LIG1        0.1474
      4 C          -1.1831    0.5643    0.0006 C.ar    1  LIG1        0.0698
      5 S          -2.6937   -0.1528    0.0006 S.2     1  LIG1       -0.0911
      6 H          -2.8374   -2.7640   -0.0008 H       1  LIG1        0.0707
      7 C           0.0503   -2.7682   -0.0004 C.1     1  LIG1       -0.0655
      8 C           0.7454   -3.7478   -0.0006 C.1     1  LIG1       -0.1138
      9 H           1.3646   -4.6205   -0.0007 H       1  LIG1        0.1232
     10 O           1.0969   -0.1143   -0.0009 O.3     1  LIG1       -0.5044
     11 H           1.2288    0.8366   -0.0011 H       1  LIG1        0.2922
     12 C          -1.0166    1.8536    0.0014 C.ar    1  LIG1        0.0490
     13 C           0.1956    2.5069    0.0205 C.ar    1  LIG1        0.0820
     14 C           0.0262    3.9290    0.0147 C.ar    1  LIG1        0.1481
     15 C          -1.3056    4.2790   -0.0075 C.ar    1  LIG1        0.0704
     16 S          -2.2951    2.9311   -0.0215 S.2     1  LIG1       -0.0820
     17 C           1.3607    1.9305    0.0410 C.1     1  LIG1       -0.0648
     18 C           2.4372    1.3979    0.0600 C.1     1  LIG1       -0.1138
     19 H           3.3961    0.9235    0.0769 H       1  LIG1        0.1232
     20 O           1.0231    4.7633    0.0291 O.3     1  LIG1       -0.5044
     21 H           0.6881    5.6629    0.0327 H       1  LIG1        0.2922
     22 C          -1.7706    5.4930   -0.0170 C.ar    1  LIG1        0.0491
     23 C          -1.0134    6.6433   -0.0043 C.ar    1  LIG1        0.0820
     24 C          -1.8371    7.8147   -0.0210 C.ar    1  LIG1        0.1481
     25 C          -3.1754    7.4910   -0.0446 C.ar    1  LIG1        0.0704
     26 S          -3.4072    5.8350   -0.0470 S.2     1  LIG1       -0.0820
     27 C           0.2856    6.6886    0.0196 C.1     1  LIG1       -0.0648
     28 C           1.4859    6.7305    0.0416 C.1     1  LIG1       -0.1138
     29 H           2.5551    6.7678    0.0613 H       1  LIG1        0.1232
     30 O          -1.3551    9.0221   -0.0141 O.3     1  LIG1       -0.5044
     31 H          -2.0768    9.6552   -0.0124 H       1  LIG1        0.2922
     32 C          -4.1606    8.3390   -0.0631 C.ar    1  LIG1        0.0484
     33 C          -4.0394    9.7108   -0.0749 C.ar    1  LIG1        0.0814
     34 C          -5.3202   10.3513   -0.0953 C.ar    1  LIG1        0.1398
     35 C          -6.3451    9.4313   -0.0971 C.ar    1  LIG1        0.0190
     36 S          -5.7637    7.8636   -0.0756 S.2     1  LIG1       -0.0910
     37 H          -7.6146    9.7105   -0.1131 H       1  LIG1        0.0731
     38 C          -2.9172   10.3670   -0.0689 C.1     1  LIG1       -0.0648
     39 C          -1.8802   10.9733   -0.0634 C.1     1  LIG1       -0.1138
     40 H          -0.9565   11.5134   -0.0584 H       1  LIG1        0.1232
     41 O          -5.4685   11.6428   -0.1101 O.3     1  LIG1       -0.5050
     42 H          -6.4041   11.8578   -0.1137 H       1  LIG1        0.2922
@<TRIPOS>BOND
     1    42    41    1
     2    37    35    1
     3    41    34    1
     4    35    34   ar
     5    35    36   ar
     6    34    33   ar
     7    36    32   ar
     8    33    38    1
     9    33    32   ar
    10    38    39    3
    11    39    40    1
    12    32    25    1
    13    26    25   ar
    14    26    22   ar
    15    25    24   ar
    16    16    15   ar
    17    16    12   ar
    18    24    30    1
    19    24    23   ar
    20    22    15    1
    21    22    23   ar
    22    30    31    1
    23    15    14   ar
    24    23    27    1
    25    11    10    1
    26    10     3    1
    27     6     1    1
    28     9     8    1
    29     8     7    3
    30     7     2    1
    31     2     3   ar
    32     2     1   ar
    33     3     4   ar
    34     1     5   ar
    35     5     4   ar
    36     4    12    1
    37    12    13   ar
    38    14    13   ar
    39    14    20    1
    40    27    28    3
    41    13    17    1
    42    20    21    1
    43    17    18    3
    44    28    29    1
    45    18    19    1
