@<TRIPOS>MOLECULE
mol_data/noopt/geoms/mol2/5ef5ef-5ef-.out
 32 34 0 0 0
SMALL
GASTEIGER

@<TRIPOS>ATOM
      1 C          -2.0792   -1.7080   -0.0002 C.ar    1  LIG1       -0.0047
      2 C          -0.7020   -1.7080   -0.0002 C.ar    1  LIG1        0.0737
      3 C          -0.1766   -0.3757   -0.0002 C.ar    1  LIG1        0.1474
      4 C          -1.1831    0.5643    0.0006 C.ar    1  LIG1        0.0698
      5 S          -2.6937   -0.1528    0.0006 S.2     1  LIG1       -0.0911
      6 H          -2.8374   -2.7640   -0.0008 H       1  LIG1        0.0707
      7 C           0.0503   -2.7682   -0.0004 C.1     1  LIG1       -0.0655
      8 C           0.7454   -3.7478   -0.0006 C.1     1  LIG1       -0.1138
      9 H           1.3646   -4.6205   -0.0007 H       1  LIG1        0.1232
     10 O           1.0969   -0.1143   -0.0009 O.3     1  LIG1       -0.5044
     11 H           1.2288    0.8366   -0.0011 H       1  LIG1        0.2922
     12 C          -1.0166    1.8536    0.0014 C.ar    1  LIG1        0.0490
     13 C           0.1958    2.5069    0.0015 C.ar    1  LIG1        0.0820
     14 C           0.0263    3.9290    0.0017 C.ar    1  LIG1        0.1481
     15 C          -1.3057    4.2790    0.0026 C.ar    1  LIG1        0.0704
     16 S          -2.2953    2.9311    0.0023 S.2     1  LIG1       -0.0820
     17 C           1.3610    1.9305    0.0013 C.1     1  LIG1       -0.0648
     18 C           2.4376    1.3979    0.0010 C.1     1  LIG1       -0.1138
     19 H           3.3967    0.9234    0.0008 H       1  LIG1        0.1232
     20 O           1.0233    4.7633    0.0012 O.3     1  LIG1       -0.5044
     21 H           0.6884    5.6629    0.0010 H       1  LIG1        0.2922
     22 C          -1.7708    5.4930    0.0035 C.ar    1  LIG1        0.0484
     23 C          -1.0136    6.6432    0.0227 C.ar    1  LIG1        0.0814
     24 C          -1.8374    7.8147    0.0172 C.ar    1  LIG1        0.1398
     25 C          -3.1758    7.4910   -0.0051 C.ar    1  LIG1        0.0190
     26 S          -3.4074    5.8351   -0.0192 S.2     1  LIG1       -0.0910
     27 H          -4.1610    8.3391   -0.0144 H       1  LIG1        0.0731
     28 C           0.2855    6.6885    0.0432 C.1     1  LIG1       -0.0648
     29 C           1.4858    6.7303    0.0621 C.1     1  LIG1       -0.1138
     30 H           2.5550    6.7675    0.0790 H       1  LIG1        0.1232
     31 O          -1.3555    9.0221    0.0317 O.3     1  LIG1       -0.5050
     32 H          -2.0772    9.6551    0.0353 H       1  LIG1        0.2922
@<TRIPOS>BOND
     1    26    25   ar
     2    26    22   ar
     3    27    25    1
     4    25    24   ar
     5    11    10    1
     6    10     3    1
     7     6     1    1
     8     9     8    1
     9     8     7    3
    10     7     2    1
    11     2     3   ar
    12     2     1   ar
    13     3     4   ar
    14     1     5   ar
    15     4     5   ar
    16     4    12    1
    17    19    18    1
    18    18    17    3
    19    21    20    1
    20    20    14    1
    21    17    13    1
    22    12    13   ar
    23    12    16   ar
    24    13    14   ar
    25    14    15   ar
    26    16    15   ar
    27    15    22    1
    28    22    23   ar
    29    24    23   ar
    30    24    31    1
    31    23    28    1
    32    31    32    1
    33    28    29    3
    34    29    30    1
