@<TRIPOS>MOLECULE
mol_data/noopt/geoms/mol2/5ef5ef5ef5ef-.out
 42 45 0 0 0
SMALL
GASTEIGER

@<TRIPOS>ATOM
      1 C          -2.0792   -1.7080   -0.0002 C.ar    1  LIG1       -0.0047
      2 C          -0.7020   -1.7080   -0.0002 C.ar    1  LIG1        0.0737
      3 C          -0.1766   -0.3757   -0.0002 C.ar    1  LIG1        0.1474
      4 C          -1.1831    0.5643    0.0006 C.ar    1  LIG1        0.0698
      5 S          -2.6937   -0.1528    0.0006 S.2     1  LIG1       -0.0911
      6 H          -2.8374   -2.7640   -0.0008 H       1  LIG1        0.0707
      7 C           0.0503   -2.7682   -0.0004 C.1     1  LIG1       -0.0655
      8 C           0.7454   -3.7478   -0.0006 C.1     1  LIG1       -0.1138
      9 H           1.3646   -4.6205   -0.0007 H       1  LIG1        0.1232
     10 O           1.0969   -0.1143   -0.0009 O.3     1  LIG1       -0.5044
     11 H           1.2288    0.8366   -0.0011 H       1  LIG1        0.2922
     12 C          -1.0166    1.8536    0.0014 C.ar    1  LIG1        0.0490
     13 C           0.1956    2.5069    0.0205 C.ar    1  LIG1        0.0820
     14 C           0.0262    3.9290    0.0147 C.ar    1  LIG1        0.1481
     15 C          -1.3056    4.2790   -0.0075 C.ar    1  LIG1        0.0704
     16 S          -2.2951    2.9311   -0.0215 S.2     1  LIG1       -0.0820
     17 C           1.3607    1.9305    0.0410 C.1     1  LIG1       -0.0648
     18 C           2.4372    1.3979    0.0600 C.1     1  LIG1       -0.1138
     19 H           3.3961    0.9235    0.0769 H       1  LIG1        0.1232
     20 O           1.0231    4.7633    0.0291 O.3     1  LIG1       -0.5044
     21 H           0.6881    5.6629    0.0327 H       1  LIG1        0.2922
     22 C          -1.7706    5.4930   -0.0170 C.ar    1  LIG1        0.0491
     23 C          -1.0132    6.6432   -0.0232 C.ar    1  LIG1        0.0820
     24 C          -1.8369    7.8147   -0.0340 C.ar    1  LIG1        0.1481
     25 C          -3.1756    7.4910   -0.0345 C.ar    1  LIG1        0.0704
     26 S          -3.4074    5.8350   -0.0232 S.2     1  LIG1       -0.0820
     27 C           0.2860    6.6885   -0.0202 C.1     1  LIG1       -0.0648
     28 C           1.4865    6.7303   -0.0173 C.1     1  LIG1       -0.1138
     29 H           2.5558    6.7675   -0.0148 H       1  LIG1        0.1232
     30 O          -1.3549    9.0220   -0.0421 O.3     1  LIG1       -0.5044
     31 H          -2.0765    9.6551   -0.0441 H       1  LIG1        0.2922
     32 C          -4.1608    8.3391   -0.0426 C.ar    1  LIG1        0.0484
     33 C          -4.0397    9.7110   -0.0479 C.ar    1  LIG1        0.0814
     34 C          -5.3206   10.3514   -0.0572 C.ar    1  LIG1        0.1398
     35 C          -6.3455    9.4315   -0.0576 C.ar    1  LIG1        0.0190
     36 S          -5.7640    7.8637   -0.0478 S.2     1  LIG1       -0.0910
     37 H          -7.6151    9.7107   -0.0644 H       1  LIG1        0.0731
     38 C          -2.9175   10.3672   -0.0453 C.1     1  LIG1       -0.0648
     39 C          -1.8805   10.9735   -0.0429 C.1     1  LIG1       -0.1138
     40 H          -0.9568   11.5136   -0.0408 H       1  LIG1        0.1232
     41 O          -5.4690   11.6430   -0.0642 O.3     1  LIG1       -0.5050
     42 H          -6.4046   11.8580   -0.0660 H       1  LIG1        0.2922
@<TRIPOS>BOND
     1    42    41    1
     2    37    35    1
     3    41    34    1
     4    35    34   ar
     5    35    36   ar
     6    34    33   ar
     7    33    38    1
     8    33    32   ar
     9    36    32   ar
    10    38    39    3
    11    31    30    1
    12    39    40    1
    13    32    25    1
    14    30    24    1
    15    25    24   ar
    16    25    26   ar
    17    24    23   ar
    18    23    27    1
    19    23    22   ar
    20    26    22   ar
    21    16    15   ar
    22    16    12   ar
    23    27    28    3
    24    28    29    1
    25    22    15    1
    26    15    14   ar
    27    11    10    1
    28    10     3    1
    29     6     1    1
    30     9     8    1
    31     8     7    3
    32     7     2    1
    33     1     2   ar
    34     1     5   ar
    35     2     3   ar
    36     3     4   ar
    37     5     4   ar
    38     4    12    1
    39    12    13   ar
    40    14    13   ar
    41    14    20    1
    42    13    17    1
    43    20    21    1
    44    17    18    3
    45    18    19    1
