@<TRIPOS>MOLECULE
mol_data/noopt/geoms/mol2/5ef5ef-5ef5ef-.out
 42 45 0 0 0
SMALL
GASTEIGER

@<TRIPOS>ATOM
      1 C          -2.0792   -1.7080   -0.0002 C.ar    1  LIG1       -0.0047
      2 C          -0.7020   -1.7080   -0.0002 C.ar    1  LIG1        0.0737
      3 C          -0.1766   -0.3757   -0.0002 C.ar    1  LIG1        0.1474
      4 C          -1.1831    0.5643    0.0006 C.ar    1  LIG1        0.0698
      5 S          -2.6937   -0.1528    0.0006 S.2     1  LIG1       -0.0911
      6 H          -2.8374   -2.7640   -0.0008 H       1  LIG1        0.0707
      7 C           0.0503   -2.7682   -0.0004 C.1     1  LIG1       -0.0655
      8 C           0.7454   -3.7478   -0.0006 C.1     1  LIG1       -0.1138
      9 H           1.3646   -4.6205   -0.0007 H       1  LIG1        0.1232
     10 O           1.0969   -0.1143   -0.0009 O.3     1  LIG1       -0.5044
     11 H           1.2288    0.8366   -0.0011 H       1  LIG1        0.2922
     12 C          -1.0166    1.8536    0.0014 C.ar    1  LIG1        0.0490
     13 C           0.1958    2.5069    0.0015 C.ar    1  LIG1        0.0820
     14 C           0.0263    3.9290    0.0017 C.ar    1  LIG1        0.1481
     15 C          -1.3057    4.2790    0.0026 C.ar    1  LIG1        0.0704
     16 S          -2.2953    2.9311    0.0023 S.2     1  LIG1       -0.0820
     17 C           1.3610    1.9305    0.0013 C.1     1  LIG1       -0.0648
     18 C           2.4376    1.3979    0.0010 C.1     1  LIG1       -0.1138
     19 H           3.3967    0.9234    0.0008 H       1  LIG1        0.1232
     20 O           1.0233    4.7633    0.0012 O.3     1  LIG1       -0.5044
     21 H           0.6884    5.6629    0.0010 H       1  LIG1        0.2922
     22 C          -1.7708    5.4930    0.0035 C.ar    1  LIG1        0.0491
     23 C          -1.0134    6.6433    0.0038 C.ar    1  LIG1        0.0820
     24 C          -1.8373    7.8147    0.0042 C.ar    1  LIG1        0.1481
     25 C          -3.1759    7.4910    0.0050 C.ar    1  LIG1        0.0704
     26 S          -3.4076    5.8350    0.0046 S.2     1  LIG1       -0.0820
     27 C           0.2858    6.6886    0.0035 C.1     1  LIG1       -0.0648
     28 C           1.4863    6.7305    0.0032 C.1     1  LIG1       -0.1138
     29 H           2.5556    6.7678    0.0029 H       1  LIG1        0.1232
     30 O          -1.3553    9.0221    0.0038 O.3     1  LIG1       -0.5044
     31 H          -2.0770    9.6552    0.0036 H       1  LIG1        0.2922
     32 C          -4.1612    8.3391    0.0062 C.ar    1  LIG1        0.0484
     33 C          -4.0401    9.7109    0.0065 C.ar    1  LIG1        0.0814
     34 C          -5.3211   10.3514    0.0071 C.ar    1  LIG1        0.1398
     35 C          -6.3459    9.4314    0.0079 C.ar    1  LIG1        0.0190
     36 S          -5.7643    7.8636    0.0073 S.2     1  LIG1       -0.0910
     37 H          -7.6156    9.7105    0.0092 H       1  LIG1        0.0731
     38 C          -2.9179   10.3672    0.0061 C.1     1  LIG1       -0.0648
     39 C          -1.8810   10.9735    0.0058 C.1     1  LIG1       -0.1138
     40 H          -0.9573   11.5137    0.0055 H       1  LIG1        0.1232
     41 O          -5.4696   11.6429    0.0067 O.3     1  LIG1       -0.5050
     42 H          -6.4052   11.8579    0.0067 H       1  LIG1        0.2922
@<TRIPOS>BOND
     1    11    10    1
     2    10     3    1
     3     6     1    1
     4     9     8    1
     5     8     7    3
     6     7     2    1
     7     2     3   ar
     8     2     1   ar
     9     3     4   ar
    10     1     5   ar
    11     4     5   ar
    12     4    12    1
    13    19    18    1
    14    18    17    3
    15    21    20    1
    16    20    14    1
    17    17    13    1
    18    12    13   ar
    19    12    16   ar
    20    13    14   ar
    21    14    15   ar
    22    16    15   ar
    23    15    22    1
    24    29    28    1
    25    28    27    3
    26    27    23    1
    27    22    23   ar
    28    22    26   ar
    29    31    30    1
    30    30    24    1
    31    23    24   ar
    32    24    25   ar
    33    26    25   ar
    34    25    32    1
    35    40    39    1
    36    39    38    3
    37    38    33    1
    38    32    33   ar
    39    32    36   ar
    40    33    34   ar
    41    42    41    1
    42    41    34    1
    43    34    35   ar
    44    36    35   ar
    45    35    37    1
