@<TRIPOS>MOLECULE
mol_data/noopt/geoms/mol2/5eg.out
 12 12 0 0 0
SMALL
GASTEIGER

@<TRIPOS>ATOM
      1 C          -2.0792   -1.7080   -0.0002 C.ar    1  LIG1       -0.0078
      2 C          -0.7020   -1.7080   -0.0002 C.ar    1  LIG1        0.0448
      3 C          -0.1766   -0.3757   -0.0002 C.ar    1  LIG1        0.0272
      4 C          -1.1831    0.5643    0.0006 C.ar    1  LIG1       -0.0099
      5 S          -2.6937   -0.1528    0.0006 S.2     1  LIG1       -0.1027
      6 H          -2.8374   -2.7640   -0.0008 H       1  LIG1        0.0706
      7 H          -1.0166    1.8536    0.0014 H       1  LIG1        0.0705
      8 C           0.0503   -2.7682   -0.0004 C.1     1  LIG1       -0.0680
      9 C           0.7454   -3.7478   -0.0006 C.1     1  LIG1       -0.1139
     10 H           1.3646   -4.6205   -0.0007 H       1  LIG1        0.1232
     11 S           1.0968   -0.1143   -0.0009 S.3     1  LIG1       -0.1409
     12 H           1.2768    1.1833   -0.0011 H       1  LIG1        0.1072
@<TRIPOS>BOND
     1    12    11    1
     2    11     3    1
     3     6     1    1
     4    10     9    1
     5     9     8    3
     6     8     2    1
     7     1     2   ar
     8     1     5   ar
     9     2     3   ar
    10     3     4   ar
    11     4     5   ar
    12     4     7    1
