@<TRIPOS>MOLECULE
mol_data/noopt/geoms/mol2/5eg5eg5eg-5eg.out
 42 45 0 0 0
SMALL
GASTEIGER

@<TRIPOS>ATOM
      1 C          -2.0792   -1.7080   -0.0002 C.2     1  LIG1       -0.0072
      2 C          -0.7020   -1.7080   -0.0002 C.2     1  LIG1        0.0465
      3 C          -0.1766   -0.3757   -0.0002 C.2     1  LIG1        0.0496
      4 C          -1.1831    0.5643    0.0006 C.2     1  LIG1        0.0416
      5 S          -2.6937   -0.1528    0.0006 S.3     1  LIG1       -0.0937
      6 H          -2.8374   -2.7640   -0.0008 H       1  LIG1        0.0706
      7 C           0.0503   -2.7682   -0.0004 C.1     1  LIG1       -0.0680
      8 C           0.7454   -3.7478   -0.0006 C.1     1  LIG1       -0.1139
      9 H           1.3646   -4.6205   -0.0007 H       1  LIG1        0.1232
     10 S           1.0968   -0.1143   -0.0009 S.2     1  LIG1       -0.0495
     11 H           1.2768    1.1833   -0.0011 H       1  LIG1        0.0358
     12 C          -1.0166    1.8536    0.0014 C.2     1  LIG1        0.0322
     13 C           0.1956    2.5069    0.0205 C.2     1  LIG1       -0.0133
     14 C           0.0262    3.9290    0.0147 C.2     1  LIG1        0.0383
     15 C          -1.3056    4.2790   -0.0075 C.2     1  LIG1        0.0413
     16 S          -2.2951    2.9311   -0.0215 S.3     1  LIG1       -0.0857
     17 C           1.3607    1.9305    0.0410 C.3     1  LIG1       -0.0031
     18 C           2.4372    1.3979    0.0600 C.3     1  LIG1       -0.0262
     19 H           3.3961    0.9235    0.0769 H       1  LIG1        0.0313
     20 S           1.0231    4.7632    0.0291 S.2     1  LIG1       -0.0505
     21 H           0.5659    5.9908    0.0339 H       1  LIG1        0.0358
     22 C          -1.7706    5.4930   -0.0170 C.2     1  LIG1        0.0322
     23 C          -1.0134    6.6433   -0.0043 C.2     1  LIG1       -0.0133
     24 C          -1.8371    7.8147   -0.0210 C.2     1  LIG1        0.0383
     25 C          -3.1754    7.4910   -0.0446 C.2     1  LIG1        0.0413
     26 S          -3.4072    5.8350   -0.0470 S.3     1  LIG1       -0.0857
     27 C           0.2856    6.6886    0.0196 C.3     1  LIG1       -0.0031
     28 C           1.4859    6.7305    0.0416 C.3     1  LIG1       -0.0262
     29 H           2.5551    6.7678    0.0613 H       1  LIG1        0.0313
     30 S          -1.3552    9.0221   -0.0141 S.2     1  LIG1       -0.0505
     31 H          -2.3400    9.8859   -0.0118 H       1  LIG1        0.0358
     32 C          -4.1606    8.3390   -0.0631 C.ar    1  LIG1        0.0315
     33 C          -4.0397    9.7109   -0.0560 C.ar    1  LIG1       -0.0150
     34 C          -5.3204   10.3513   -0.0823 C.ar    1  LIG1        0.0158
     35 C          -6.3449    9.4313   -0.1072 C.ar    1  LIG1       -0.0103
     36 S          -5.7633    7.8636   -0.0994 S.2     1  LIG1       -0.0947
     37 H          -7.6143    9.7105   -0.1337 H       1  LIG1        0.0704
     38 C          -2.9178   10.3671   -0.0292 C.3     1  LIG1       -0.0032
     39 C          -1.8812   10.9735   -0.0044 C.3     1  LIG1       -0.0262
     40 H          -0.9578   11.5136    0.0176 H       1  LIG1        0.0313
     41 S          -5.4689   11.6428   -0.0821 S.3     1  LIG1       -0.1418
     42 H          -6.7457   11.9361   -0.0821 H       1  LIG1        0.1071
@<TRIPOS>BOND
     1    37    35    1
     2    35    36   ar
     3    35    34   ar
     4    36    32   ar
     5    34    41    1
     6    34    33   ar
     7    41    42    1
     8    32    33   ar
     9    32    25    1
    10    33    38    1
    11    26    25    2
    12    26    22    1
    13    25    24    1
    14    38    31    1
    15    38    39    1
    16    16    15    2
    17    16    12    1
    18    24    30    2
    19    24    23    1
    20    22    15    1
    21    22    23    2
    22    15    14    1
    23    39    40    1
    24    23    27    1
    25    11    17    1
    26    10     3    2
    27     6     1    1
    28     9     8    1
    29     8     7    3
    30     7     2    1
    31     2     3    1
    32     2     1    2
    33     3     4    1
    34     1     5    1
    35     5     4    2
    36     4    12    1
    37    12    13    2
    38    14    13    1
    39    14    20    2
    40    27    21    1
    41    27    28    1
    42    13    17    1
    43    17    18    1
    44    28    29    1
    45    18    19    1
