@<TRIPOS>MOLECULE
mol_data/noopt/geoms/mol2/5eg5eg5eg5eg.out
 42 45 0 0 0
SMALL
GASTEIGER

@<TRIPOS>ATOM
      1 C          -2.0792   -1.7080   -0.0002 C.2     1  LIG1       -0.0072
      2 C          -0.7020   -1.7080   -0.0002 C.2     1  LIG1        0.0465
      3 C          -0.1766   -0.3757   -0.0002 C.2     1  LIG1        0.0496
      4 C          -1.1831    0.5643    0.0006 C.2     1  LIG1        0.0416
      5 S          -2.6937   -0.1528    0.0006 S.3     1  LIG1       -0.0937
      6 H          -2.8374   -2.7640   -0.0008 H       1  LIG1        0.0706
      7 C           0.0503   -2.7682   -0.0004 C.1     1  LIG1       -0.0680
      8 C           0.7454   -3.7478   -0.0006 C.1     1  LIG1       -0.1139
      9 H           1.3646   -4.6205   -0.0007 H       1  LIG1        0.1232
     10 S           1.0968   -0.1143   -0.0009 S.2     1  LIG1       -0.0495
     11 H           1.2768    1.1833   -0.0011 H       1  LIG1        0.0358
     12 C          -1.0166    1.8536    0.0014 C.2     1  LIG1        0.0322
     13 C           0.1956    2.5069    0.0205 C.2     1  LIG1       -0.0133
     14 C           0.0262    3.9290    0.0147 C.2     1  LIG1        0.0383
     15 C          -1.3056    4.2790   -0.0075 C.2     1  LIG1        0.0413
     16 S          -2.2951    2.9311   -0.0215 S.3     1  LIG1       -0.0857
     17 C           1.3607    1.9305    0.0410 C.3     1  LIG1       -0.0031
     18 C           2.4372    1.3979    0.0600 C.3     1  LIG1       -0.0262
     19 H           3.3961    0.9235    0.0769 H       1  LIG1        0.0313
     20 S           1.0231    4.7632    0.0291 S.2     1  LIG1       -0.0505
     21 H           0.5659    5.9908    0.0339 H       1  LIG1        0.0358
     22 C          -1.7706    5.4930   -0.0170 C.2     1  LIG1        0.0322
     23 C          -1.0132    6.6432   -0.0232 C.2     1  LIG1       -0.0133
     24 C          -1.8369    7.8147   -0.0340 C.2     1  LIG1        0.0383
     25 C          -3.1756    7.4910   -0.0345 C.2     1  LIG1        0.0413
     26 S          -3.4074    5.8350   -0.0232 S.3     1  LIG1       -0.0857
     27 C           0.2860    6.6885   -0.0202 C.3     1  LIG1       -0.0031
     28 C           1.4865    6.7303   -0.0173 C.3     1  LIG1       -0.0262
     29 H           2.5558    6.7675   -0.0148 H       1  LIG1        0.0313
     30 S          -1.3549    9.0219   -0.0421 S.2     1  LIG1       -0.0505
     31 H          -2.3396    9.8859   -0.0448 H       1  LIG1        0.0358
     32 C          -4.1608    8.3391   -0.0426 C.ar    1  LIG1        0.0315
     33 C          -4.0399    9.7109   -0.0290 C.ar    1  LIG1       -0.0150
     34 C          -5.3207   10.3514   -0.0442 C.ar    1  LIG1        0.0158
     35 C          -6.3454    9.4315   -0.0677 C.ar    1  LIG1       -0.0103
     36 S          -5.7637    7.8638   -0.0716 S.2     1  LIG1       -0.0947
     37 H          -7.6149    9.7107   -0.0849 H       1  LIG1        0.0704
     38 C          -2.9179   10.3671   -0.0056 C.3     1  LIG1       -0.0032
     39 C          -1.8811   10.9733    0.0160 C.3     1  LIG1       -0.0262
     40 H          -0.9576   11.5134    0.0353 H       1  LIG1        0.0313
     41 S          -5.4693   11.6428   -0.0363 S.3     1  LIG1       -0.1418
     42 H          -6.7460   11.9361   -0.0337 H       1  LIG1        0.1071
@<TRIPOS>BOND
     1    37    35    1
     2    36    35   ar
     3    36    32   ar
     4    35    34   ar
     5    31    38    1
     6    34    41    1
     7    34    33   ar
     8    32    25    1
     9    32    33   ar
    10    30    24    2
    11    41    42    1
    12    25    24    1
    13    25    26    2
    14    24    23    1
    15    33    38    1
    16    23    27    1
    17    23    22    2
    18    26    22    1
    19    16    15    2
    20    16    12    1
    21    27    28    1
    22    27    21    1
    23    28    29    1
    24    22    15    1
    25    15    14    1
    26    38    39    1
    27    11    17    1
    28    10     3    2
    29     6     1    1
    30     9     8    1
    31     8     7    3
    32     7     2    1
    33     2     3    1
    34     2     1    2
    35     3     4    1
    36     1     5    1
    37     5     4    2
    38     4    12    1
    39    12    13    2
    40    14    13    1
    41    14    20    2
    42    39    40    1
    43    13    17    1
    44    17    18    1
    45    18    19    1
