@<TRIPOS>MOLECULE
mol_data/noopt/geoms/mol2/5eg5eg-5eg.out
 32 34 0 0 0
SMALL
GASTEIGER

@<TRIPOS>ATOM
      1 C          -2.0792   -1.7080   -0.0002 C.2     1  LIG1       -0.0072
      2 C          -0.7020   -1.7080   -0.0002 C.2     1  LIG1        0.0465
      3 C          -0.1766   -0.3757   -0.0002 C.2     1  LIG1        0.0496
      4 C          -1.1831    0.5643    0.0006 C.2     1  LIG1        0.0416
      5 S          -2.6937   -0.1528    0.0006 S.3     1  LIG1       -0.0937
      6 H          -2.8374   -2.7640   -0.0008 H       1  LIG1        0.0706
      7 C           0.0503   -2.7682   -0.0004 C.1     1  LIG1       -0.0680
      8 C           0.7454   -3.7478   -0.0006 C.1     1  LIG1       -0.1139
      9 H           1.3646   -4.6205   -0.0007 H       1  LIG1        0.1232
     10 S           1.0968   -0.1143   -0.0009 S.2     1  LIG1       -0.0495
     11 H           1.2768    1.1833   -0.0011 H       1  LIG1        0.0358
     12 C          -1.0166    1.8536    0.0014 C.2     1  LIG1        0.0322
     13 C           0.1958    2.5069    0.0015 C.2     1  LIG1       -0.0133
     14 C           0.0263    3.9290    0.0017 C.2     1  LIG1        0.0383
     15 C          -1.3057    4.2790    0.0026 C.2     1  LIG1        0.0413
     16 S          -2.2953    2.9311    0.0023 S.3     1  LIG1       -0.0857
     17 C           1.3610    1.9305    0.0013 C.3     1  LIG1       -0.0031
     18 C           2.4376    1.3979    0.0010 C.3     1  LIG1       -0.0262
     19 H           3.3967    0.9234    0.0008 H       1  LIG1        0.0313
     20 S           1.0233    4.7632    0.0012 S.2     1  LIG1       -0.0505
     21 H           0.5662    5.9909    0.0010 H       1  LIG1        0.0358
     22 C          -1.7708    5.4930    0.0035 C.ar    1  LIG1        0.0315
     23 C          -1.0134    6.6433    0.0038 C.ar    1  LIG1       -0.0150
     24 C          -1.8373    7.8147    0.0042 C.ar    1  LIG1        0.0158
     25 C          -3.1759    7.4910    0.0050 C.ar    1  LIG1       -0.0103
     26 S          -3.4076    5.8350    0.0046 S.2     1  LIG1       -0.0947
     27 H          -4.1612    8.3391    0.0062 H       1  LIG1        0.0704
     28 C           0.2858    6.6886    0.0035 C.3     1  LIG1       -0.0032
     29 C           1.4863    6.7305    0.0032 C.3     1  LIG1       -0.0262
     30 H           2.5556    6.7678    0.0029 H       1  LIG1        0.0313
     31 S          -1.3553    9.0221    0.0038 S.3     1  LIG1       -0.1418
     32 H          -2.3401    9.8860    0.0036 H       1  LIG1        0.1071
@<TRIPOS>BOND
     1    11    17    1
     2    10     3    2
     3     6     1    1
     4     9     8    1
     5     8     7    3
     6     7     2    1
     7     2     3    1
     8     2     1    2
     9     3     4    1
    10     1     5    1
    11     4     5    2
    12     4    12    1
    13    19    18    1
    14    21    28    1
    15    18    17    1
    16    20    14    2
    17    17    13    1
    18    12    13    2
    19    12    16    1
    20    13    14    1
    21    14    15    1
    22    16    15    2
    23    15    22    1
    24    30    29    1
    25    29    28    1
    26    28    23    1
    27    22    23   ar
    28    22    26   ar
    29    32    31    1
    30    31    24    1
    31    23    24   ar
    32    24    25   ar
    33    26    25   ar
    34    25    27    1
