@<TRIPOS>MOLECULE
mol_data/noopt/geoms/mol2/5eg5eg-5eg-.out
 32 34 0 0 0
SMALL
GASTEIGER

@<TRIPOS>ATOM
      1 C          -2.0792   -1.7080   -0.0002 C.2     1  LIG1       -0.0072
      2 C          -0.7020   -1.7080   -0.0002 C.2     1  LIG1        0.0465
      3 C          -0.1766   -0.3757   -0.0002 C.2     1  LIG1        0.0496
      4 C          -1.1831    0.5643    0.0006 C.2     1  LIG1        0.0416
      5 S          -2.6937   -0.1528    0.0006 S.3     1  LIG1       -0.0937
      6 H          -2.8374   -2.7640   -0.0008 H       1  LIG1        0.0706
      7 C           0.0503   -2.7682   -0.0004 C.1     1  LIG1       -0.0680
      8 C           0.7454   -3.7478   -0.0006 C.1     1  LIG1       -0.1139
      9 H           1.3646   -4.6205   -0.0007 H       1  LIG1        0.1232
     10 S           1.0968   -0.1143   -0.0009 S.2     1  LIG1       -0.0495
     11 H           1.2768    1.1833   -0.0011 H       1  LIG1        0.0358
     12 C          -1.0166    1.8536    0.0014 C.2     1  LIG1        0.0322
     13 C           0.1958    2.5069    0.0015 C.2     1  LIG1       -0.0133
     14 C           0.0263    3.9290    0.0017 C.2     1  LIG1        0.0383
     15 C          -1.3057    4.2790    0.0026 C.2     1  LIG1        0.0413
     16 S          -2.2953    2.9311    0.0023 S.3     1  LIG1       -0.0857
     17 C           1.3610    1.9305    0.0013 C.3     1  LIG1       -0.0031
     18 C           2.4376    1.3979    0.0010 C.3     1  LIG1       -0.0262
     19 H           3.3967    0.9234    0.0008 H       1  LIG1        0.0313
     20 S           1.0233    4.7632    0.0012 S.2     1  LIG1       -0.0505
     21 H           0.5662    5.9909    0.0010 H       1  LIG1        0.0358
     22 C          -1.7708    5.4930    0.0035 C.ar    1  LIG1        0.0315
     23 C          -1.0136    6.6432    0.0227 C.ar    1  LIG1       -0.0150
     24 C          -1.8374    7.8147    0.0172 C.ar    1  LIG1        0.0158
     25 C          -3.1758    7.4910   -0.0051 C.ar    1  LIG1       -0.0103
     26 S          -3.4074    5.8351   -0.0192 S.2     1  LIG1       -0.0947
     27 H          -4.1610    8.3391   -0.0144 H       1  LIG1        0.0704
     28 C           0.2855    6.6885    0.0432 C.3     1  LIG1       -0.0032
     29 C           1.4858    6.7303    0.0621 C.3     1  LIG1       -0.0262
     30 H           2.5550    6.7675    0.0790 H       1  LIG1        0.0313
     31 S          -1.3555    9.0220    0.0317 S.3     1  LIG1       -0.1418
     32 H          -2.3403    9.8858    0.0366 H       1  LIG1        0.1071
@<TRIPOS>BOND
     1    26    25   ar
     2    26    22   ar
     3    27    25    1
     4    25    24   ar
     5    11    17    1
     6    10     3    2
     7     6     1    1
     8     9     8    1
     9     8     7    3
    10     7     2    1
    11     2     3    1
    12     2     1    2
    13     3     4    1
    14     1     5    1
    15     4     5    2
    16     4    12    1
    17    19    18    1
    18    21    28    1
    19    18    17    1
    20    20    14    2
    21    17    13    1
    22    12    13    2
    23    12    16    1
    24    13    14    1
    25    14    15    1
    26    16    15    2
    27    15    22    1
    28    22    23   ar
    29    24    23   ar
    30    24    31    1
    31    23    28    1
    32    31    32    1
    33    28    29    1
    34    29    30    1
