@<TRIPOS>MOLECULE
mol_data/noopt/geoms/mol2/5eg5eg-5eg-5eg.out
 42 45 0 0 0
SMALL
GASTEIGER

@<TRIPOS>ATOM
      1 C          -2.0792   -1.7080   -0.0002 C.2     1  LIG1       -0.0072
      2 C          -0.7020   -1.7080   -0.0002 C.2     1  LIG1        0.0465
      3 C          -0.1766   -0.3757   -0.0002 C.2     1  LIG1        0.0496
      4 C          -1.1831    0.5643    0.0006 C.2     1  LIG1        0.0416
      5 S          -2.6937   -0.1528    0.0006 S.3     1  LIG1       -0.0937
      6 H          -2.8374   -2.7640   -0.0008 H       1  LIG1        0.0706
      7 C           0.0503   -2.7682   -0.0004 C.1     1  LIG1       -0.0680
      8 C           0.7454   -3.7478   -0.0006 C.1     1  LIG1       -0.1139
      9 H           1.3646   -4.6205   -0.0007 H       1  LIG1        0.1232
     10 S           1.0968   -0.1143   -0.0009 S.2     1  LIG1       -0.0495
     11 H           1.2768    1.1833   -0.0011 H       1  LIG1        0.0358
     12 C          -1.0166    1.8536    0.0014 C.2     1  LIG1        0.0322
     13 C           0.1958    2.5069    0.0015 C.2     1  LIG1       -0.0133
     14 C           0.0263    3.9290    0.0017 C.2     1  LIG1        0.0383
     15 C          -1.3057    4.2790    0.0026 C.2     1  LIG1        0.0413
     16 S          -2.2953    2.9311    0.0023 S.3     1  LIG1       -0.0857
     17 C           1.3610    1.9305    0.0013 C.3     1  LIG1       -0.0031
     18 C           2.4376    1.3979    0.0010 C.3     1  LIG1       -0.0262
     19 H           3.3967    0.9234    0.0008 H       1  LIG1        0.0313
     20 S           1.0233    4.7632    0.0012 S.2     1  LIG1       -0.0505
     21 H           0.5662    5.9909    0.0010 H       1  LIG1        0.0358
     22 C          -1.7708    5.4930    0.0035 C.2     1  LIG1        0.0322
     23 C          -1.0136    6.6432    0.0227 C.2     1  LIG1       -0.0133
     24 C          -1.8374    7.8147    0.0172 C.2     1  LIG1        0.0383
     25 C          -3.1758    7.4910   -0.0051 C.2     1  LIG1        0.0413
     26 S          -3.4074    5.8351   -0.0192 S.3     1  LIG1       -0.0857
     27 C           0.2855    6.6885    0.0432 C.3     1  LIG1       -0.0031
     28 C           1.4858    6.7303    0.0621 C.3     1  LIG1       -0.0262
     29 H           2.5550    6.7675    0.0790 H       1  LIG1        0.0313
     30 S          -1.3555    9.0220    0.0317 S.2     1  LIG1       -0.0505
     31 H          -2.3403    9.8858    0.0366 H       1  LIG1        0.0358
     32 C          -4.1610    8.3391   -0.0144 C.ar    1  LIG1        0.0315
     33 C          -4.0401    9.7110   -0.0016 C.ar    1  LIG1       -0.0150
     34 C          -5.3209   10.3515   -0.0181 C.ar    1  LIG1        0.0158
     35 C          -6.3455    9.4316   -0.0417 C.ar    1  LIG1       -0.0103
     36 S          -5.7639    7.8638   -0.0443 S.2     1  LIG1       -0.0947
     37 H          -7.6151    9.7108   -0.0601 H       1  LIG1        0.0704
     38 C          -2.9181   10.3671    0.0222 C.3     1  LIG1       -0.0032
     39 C          -1.8813   10.9734    0.0443 C.3     1  LIG1       -0.0262
     40 H          -0.9578   11.5134    0.0639 H       1  LIG1        0.0313
     41 S          -5.4695   11.6429   -0.0111 S.3     1  LIG1       -0.1418
     42 H          -6.7462   11.9362   -0.0088 H       1  LIG1        0.1071
@<TRIPOS>BOND
     1    37    35    1
     2    36    35   ar
     3    36    32   ar
     4    35    34   ar
     5    26    25    2
     6    26    22    1
     7    34    41    1
     8    34    33   ar
     9    32    25    1
    10    32    33   ar
    11    41    42    1
    12    25    24    1
    13    33    38    1
    14    11    17    1
    15    10     3    2
    16     6     1    1
    17     9     8    1
    18     8     7    3
    19     7     2    1
    20     1     2    2
    21     1     5    1
    22     2     3    1
    23     3     4    1
    24     4     5    2
    25     4    12    1
    26    19    18    1
    27    21    27    1
    28    18    17    1
    29    20    14    2
    30    17    13    1
    31    12    13    2
    32    12    16    1
    33    13    14    1
    34    14    15    1
    35    16    15    2
    36    15    22    1
    37    22    23    2
    38    24    23    1
    39    24    30    2
    40    38    31    1
    41    38    39    1
    42    23    27    1
    43    27    28    1
    44    39    40    1
    45    28    29    1
