@<TRIPOS>MOLECULE
mol_data/noopt/geoms/mol2/5eg5eg-5eg5eg.out
 42 45 0 0 0
SMALL
GASTEIGER

@<TRIPOS>ATOM
      1 C          -2.0792   -1.7080   -0.0002 C.2     1  LIG1       -0.0072
      2 C          -0.7020   -1.7080   -0.0002 C.2     1  LIG1        0.0465
      3 C          -0.1766   -0.3757   -0.0002 C.2     1  LIG1        0.0496
      4 C          -1.1831    0.5643    0.0006 C.2     1  LIG1        0.0416
      5 S          -2.6937   -0.1528    0.0006 S.3     1  LIG1       -0.0937
      6 H          -2.8374   -2.7640   -0.0008 H       1  LIG1        0.0706
      7 C           0.0503   -2.7682   -0.0004 C.1     1  LIG1       -0.0680
      8 C           0.7454   -3.7478   -0.0006 C.1     1  LIG1       -0.1139
      9 H           1.3646   -4.6205   -0.0007 H       1  LIG1        0.1232
     10 S           1.0968   -0.1143   -0.0009 S.2     1  LIG1       -0.0495
     11 H           1.2768    1.1833   -0.0011 H       1  LIG1        0.0358
     12 C          -1.0166    1.8536    0.0014 C.2     1  LIG1        0.0322
     13 C           0.1958    2.5069    0.0015 C.2     1  LIG1       -0.0133
     14 C           0.0263    3.9290    0.0017 C.2     1  LIG1        0.0383
     15 C          -1.3057    4.2790    0.0026 C.2     1  LIG1        0.0413
     16 S          -2.2953    2.9311    0.0023 S.3     1  LIG1       -0.0857
     17 C           1.3610    1.9305    0.0013 C.3     1  LIG1       -0.0031
     18 C           2.4376    1.3979    0.0010 C.3     1  LIG1       -0.0262
     19 H           3.3967    0.9234    0.0008 H       1  LIG1        0.0313
     20 S           1.0233    4.7632    0.0012 S.2     1  LIG1       -0.0505
     21 H           0.5662    5.9909    0.0010 H       1  LIG1        0.0358
     22 C          -1.7708    5.4930    0.0035 C.2     1  LIG1        0.0322
     23 C          -1.0134    6.6433    0.0038 C.2     1  LIG1       -0.0133
     24 C          -1.8373    7.8147    0.0042 C.2     1  LIG1        0.0383
     25 C          -3.1759    7.4910    0.0050 C.2     1  LIG1        0.0413
     26 S          -3.4076    5.8350    0.0046 S.3     1  LIG1       -0.0857
     27 C           0.2858    6.6886    0.0035 C.3     1  LIG1       -0.0031
     28 C           1.4863    6.7305    0.0032 C.3     1  LIG1       -0.0262
     29 H           2.5556    6.7678    0.0029 H       1  LIG1        0.0313
     30 S          -1.3553    9.0221    0.0038 S.2     1  LIG1       -0.0505
     31 H          -2.3401    9.8860    0.0036 H       1  LIG1        0.0358
     32 C          -4.1612    8.3391    0.0062 C.ar    1  LIG1        0.0315
     33 C          -4.0402    9.7108    0.0254 C.ar    1  LIG1       -0.0150
     34 C          -5.3212   10.3513    0.0201 C.ar    1  LIG1        0.0158
     35 C          -6.3459    9.4314   -0.0022 C.ar    1  LIG1       -0.0103
     36 S          -5.7642    7.8638   -0.0165 S.2     1  LIG1       -0.0947
     37 H          -7.6155    9.7107   -0.0114 H       1  LIG1        0.0704
     38 C          -2.9181   10.3669    0.0458 C.3     1  LIG1       -0.0032
     39 C          -1.8813   10.9731    0.0647 C.3     1  LIG1       -0.0262
     40 H          -0.9577   11.5131    0.0815 H       1  LIG1        0.0313
     41 S          -5.4697   11.6427    0.0347 S.3     1  LIG1       -0.1418
     42 H          -6.7465   11.9359    0.0396 H       1  LIG1        0.1071
@<TRIPOS>BOND
     1    36    35   ar
     2    36    32   ar
     3    37    35    1
     4    35    34   ar
     5    11    17    1
     6    10     3    2
     7     6     1    1
     8     9     8    1
     9     8     7    3
    10     7     2    1
    11     2     3    1
    12     2     1    2
    13     3     4    1
    14     1     5    1
    15     4     5    2
    16     4    12    1
    17    19    18    1
    18    21    27    1
    19    18    17    1
    20    20    14    2
    21    17    13    1
    22    12    13    2
    23    12    16    1
    24    13    14    1
    25    14    15    1
    26    16    15    2
    27    15    22    1
    28    29    28    1
    29    28    27    1
    30    27    23    1
    31    22    23    2
    32    22    26    1
    33    31    38    1
    34    30    24    2
    35    23    24    1
    36    24    25    1
    37    26    25    2
    38    25    32    1
    39    32    33   ar
    40    34    33   ar
    41    34    41    1
    42    33    38    1
    43    41    42    1
    44    38    39    1
    45    39    40    1
