@<TRIPOS>MOLECULE
mol_data/noopt/geoms/mol2/5eg5eg5eg.out
 32 34 0 0 0
SMALL
GASTEIGER

@<TRIPOS>ATOM
      1 C          -2.0792   -1.7080   -0.0002 C.2     1  LIG1       -0.0072
      2 C          -0.7020   -1.7080   -0.0002 C.2     1  LIG1        0.0465
      3 C          -0.1766   -0.3757   -0.0002 C.2     1  LIG1        0.0496
      4 C          -1.1831    0.5643    0.0006 C.2     1  LIG1        0.0416
      5 S          -2.6937   -0.1528    0.0006 S.3     1  LIG1       -0.0937
      6 H          -2.8374   -2.7640   -0.0008 H       1  LIG1        0.0706
      7 C           0.0503   -2.7682   -0.0004 C.1     1  LIG1       -0.0680
      8 C           0.7454   -3.7478   -0.0006 C.1     1  LIG1       -0.1139
      9 H           1.3646   -4.6205   -0.0007 H       1  LIG1        0.1232
     10 S           1.0968   -0.1143   -0.0009 S.2     1  LIG1       -0.0495
     11 H           1.2768    1.1833   -0.0011 H       1  LIG1        0.0358
     12 C          -1.0166    1.8536    0.0014 C.2     1  LIG1        0.0322
     13 C           0.1956    2.5069    0.0205 C.2     1  LIG1       -0.0133
     14 C           0.0262    3.9290    0.0147 C.2     1  LIG1        0.0383
     15 C          -1.3056    4.2790   -0.0075 C.2     1  LIG1        0.0413
     16 S          -2.2951    2.9311   -0.0215 S.3     1  LIG1       -0.0857
     17 C           1.3607    1.9305    0.0410 C.3     1  LIG1       -0.0031
     18 C           2.4372    1.3979    0.0600 C.3     1  LIG1       -0.0262
     19 H           3.3961    0.9235    0.0769 H       1  LIG1        0.0313
     20 S           1.0231    4.7632    0.0291 S.2     1  LIG1       -0.0505
     21 H           0.5659    5.9908    0.0339 H       1  LIG1        0.0358
     22 C          -1.7706    5.4930   -0.0170 C.ar    1  LIG1        0.0315
     23 C          -1.0132    6.6432   -0.0232 C.ar    1  LIG1       -0.0150
     24 C          -1.8369    7.8147   -0.0340 C.ar    1  LIG1        0.0158
     25 C          -3.1756    7.4910   -0.0345 C.ar    1  LIG1       -0.0103
     26 S          -3.4074    5.8350   -0.0232 S.2     1  LIG1       -0.0947
     27 H          -4.1608    8.3391   -0.0426 H       1  LIG1        0.0704
     28 C           0.2860    6.6885   -0.0202 C.3     1  LIG1       -0.0032
     29 C           1.4865    6.7303   -0.0173 C.3     1  LIG1       -0.0262
     30 H           2.5558    6.7675   -0.0148 H       1  LIG1        0.0313
     31 S          -1.3549    9.0219   -0.0421 S.3     1  LIG1       -0.1418
     32 H          -2.3396    9.8859   -0.0448 H       1  LIG1        0.1071
@<TRIPOS>BOND
     1    32    31    1
     2    27    25    1
     3    31    24    1
     4    25    24   ar
     5    25    26   ar
     6    24    23   ar
     7    23    28    1
     8    23    22   ar
     9    26    22   ar
    10    16    15    2
    11    16    12    1
    12    28    29    1
    13    28    21    1
    14    29    30    1
    15    22    15    1
    16    15    14    1
    17    11    17    1
    18    10     3    2
    19     6     1    1
    20     9     8    1
    21     8     7    3
    22     7     2    1
    23     1     2    2
    24     1     5    1
    25     3     2    1
    26     3     4    1
    27     5     4    2
    28     4    12    1
    29    12    13    2
    30    14    13    1
    31    14    20    2
    32    13    17    1
    33    17    18    1
    34    18    19    1
