@<TRIPOS>MOLECULE
mol_data/noopt/geoms/mol2/5eg5eg5eg5eg-.out
 42 45 0 0 0
SMALL
GASTEIGER

@<TRIPOS>ATOM
      1 C          -2.0792   -1.7080   -0.0002 C.2     1  LIG1       -0.0072
      2 C          -0.7020   -1.7080   -0.0002 C.2     1  LIG1        0.0465
      3 C          -0.1766   -0.3757   -0.0002 C.2     1  LIG1        0.0496
      4 C          -1.1831    0.5643    0.0006 C.2     1  LIG1        0.0416
      5 S          -2.6937   -0.1528    0.0006 S.3     1  LIG1       -0.0937
      6 H          -2.8374   -2.7640   -0.0008 H       1  LIG1        0.0706
      7 C           0.0503   -2.7682   -0.0004 C.1     1  LIG1       -0.0680
      8 C           0.7454   -3.7478   -0.0006 C.1     1  LIG1       -0.1139
      9 H           1.3646   -4.6205   -0.0007 H       1  LIG1        0.1232
     10 S           1.0968   -0.1143   -0.0009 S.2     1  LIG1       -0.0495
     11 H           1.2768    1.1833   -0.0011 H       1  LIG1        0.0358
     12 C          -1.0166    1.8536    0.0014 C.2     1  LIG1        0.0322
     13 C           0.1956    2.5069    0.0205 C.2     1  LIG1       -0.0133
     14 C           0.0262    3.9290    0.0147 C.2     1  LIG1        0.0383
     15 C          -1.3056    4.2790   -0.0075 C.2     1  LIG1        0.0413
     16 S          -2.2951    2.9311   -0.0215 S.3     1  LIG1       -0.0857
     17 C           1.3607    1.9305    0.0410 C.3     1  LIG1       -0.0031
     18 C           2.4372    1.3979    0.0600 C.3     1  LIG1       -0.0262
     19 H           3.3961    0.9235    0.0769 H       1  LIG1        0.0313
     20 S           1.0231    4.7632    0.0291 S.2     1  LIG1       -0.0505
     21 H           0.5659    5.9908    0.0339 H       1  LIG1        0.0358
     22 C          -1.7706    5.4930   -0.0170 C.2     1  LIG1        0.0322
     23 C          -1.0132    6.6432   -0.0232 C.2     1  LIG1       -0.0133
     24 C          -1.8369    7.8147   -0.0340 C.2     1  LIG1        0.0383
     25 C          -3.1756    7.4910   -0.0345 C.2     1  LIG1        0.0413
     26 S          -3.4074    5.8350   -0.0232 S.3     1  LIG1       -0.0857
     27 C           0.2860    6.6885   -0.0202 C.3     1  LIG1       -0.0031
     28 C           1.4865    6.7303   -0.0173 C.3     1  LIG1       -0.0262
     29 H           2.5558    6.7675   -0.0148 H       1  LIG1        0.0313
     30 S          -1.3549    9.0219   -0.0421 S.2     1  LIG1       -0.0505
     31 H          -2.3396    9.8859   -0.0448 H       1  LIG1        0.0358
     32 C          -4.1608    8.3391   -0.0426 C.ar    1  LIG1        0.0315
     33 C          -4.0397    9.7110   -0.0479 C.ar    1  LIG1       -0.0150
     34 C          -5.3206   10.3514   -0.0572 C.ar    1  LIG1        0.0158
     35 C          -6.3455    9.4315   -0.0576 C.ar    1  LIG1       -0.0103
     36 S          -5.7640    7.8637   -0.0478 S.2     1  LIG1       -0.0947
     37 H          -7.6151    9.7107   -0.0644 H       1  LIG1        0.0704
     38 C          -2.9175   10.3672   -0.0453 C.3     1  LIG1       -0.0032
     39 C          -1.8805   10.9735   -0.0429 C.3     1  LIG1       -0.0262
     40 H          -0.9568   11.5136   -0.0408 H       1  LIG1        0.0313
     41 S          -5.4690   11.6429   -0.0642 S.3     1  LIG1       -0.1418
     42 H          -6.7457   11.9363   -0.0666 H       1  LIG1        0.1071
@<TRIPOS>BOND
     1    42    41    1
     2    37    35    1
     3    41    34    1
     4    35    34   ar
     5    35    36   ar
     6    34    33   ar
     7    33    38    1
     8    33    32   ar
     9    36    32   ar
    10    38    31    1
    11    38    39    1
    12    39    40    1
    13    32    25    1
    14    30    24    2
    15    25    24    1
    16    25    26    2
    17    24    23    1
    18    23    27    1
    19    23    22    2
    20    26    22    1
    21    16    15    2
    22    16    12    1
    23    27    28    1
    24    27    21    1
    25    28    29    1
    26    22    15    1
    27    15    14    1
    28    11    17    1
    29    10     3    2
    30     6     1    1
    31     9     8    1
    32     8     7    3
    33     7     2    1
    34     1     2    2
    35     1     5    1
    36     2     3    1
    37     3     4    1
    38     5     4    2
    39     4    12    1
    40    12    13    2
    41    14    13    1
    42    14    20    2
    43    13    17    1
    44    17    18    1
    45    18    19    1
