@<TRIPOS>MOLECULE
mol_data/noopt/geoms/mol2/5eg5eg5eg-.out
 32 34 0 0 0
SMALL
GASTEIGER

@<TRIPOS>ATOM
      1 C          -2.0792   -1.7080   -0.0002 C.2     1  LIG1       -0.0072
      2 C          -0.7020   -1.7080   -0.0002 C.2     1  LIG1        0.0465
      3 C          -0.1766   -0.3757   -0.0002 C.2     1  LIG1        0.0496
      4 C          -1.1831    0.5643    0.0006 C.2     1  LIG1        0.0416
      5 S          -2.6937   -0.1528    0.0006 S.3     1  LIG1       -0.0937
      6 H          -2.8374   -2.7640   -0.0008 H       1  LIG1        0.0706
      7 C           0.0503   -2.7682   -0.0004 C.1     1  LIG1       -0.0680
      8 C           0.7454   -3.7478   -0.0006 C.1     1  LIG1       -0.1139
      9 H           1.3646   -4.6205   -0.0007 H       1  LIG1        0.1232
     10 S           1.0968   -0.1143   -0.0009 S.2     1  LIG1       -0.0495
     11 H           1.2768    1.1833   -0.0011 H       1  LIG1        0.0358
     12 C          -1.0166    1.8536    0.0014 C.2     1  LIG1        0.0322
     13 C           0.1956    2.5069    0.0205 C.2     1  LIG1       -0.0133
     14 C           0.0262    3.9290    0.0147 C.2     1  LIG1        0.0383
     15 C          -1.3056    4.2790   -0.0075 C.2     1  LIG1        0.0413
     16 S          -2.2951    2.9311   -0.0215 S.3     1  LIG1       -0.0857
     17 C           1.3607    1.9305    0.0410 C.3     1  LIG1       -0.0031
     18 C           2.4372    1.3979    0.0600 C.3     1  LIG1       -0.0262
     19 H           3.3961    0.9235    0.0769 H       1  LIG1        0.0313
     20 S           1.0231    4.7632    0.0291 S.2     1  LIG1       -0.0505
     21 H           0.5659    5.9908    0.0339 H       1  LIG1        0.0358
     22 C          -1.7706    5.4930   -0.0170 C.ar    1  LIG1        0.0315
     23 C          -1.0134    6.6433   -0.0043 C.ar    1  LIG1       -0.0150
     24 C          -1.8371    7.8147   -0.0210 C.ar    1  LIG1        0.0158
     25 C          -3.1754    7.4910   -0.0446 C.ar    1  LIG1       -0.0103
     26 S          -3.4072    5.8350   -0.0470 S.2     1  LIG1       -0.0947
     27 H          -4.1606    8.3390   -0.0631 H       1  LIG1        0.0704
     28 C           0.2856    6.6886    0.0196 C.3     1  LIG1       -0.0032
     29 C           1.4859    6.7305    0.0416 C.3     1  LIG1       -0.0262
     30 H           2.5551    6.7678    0.0613 H       1  LIG1        0.0313
     31 S          -1.3552    9.0221   -0.0141 S.3     1  LIG1       -0.1418
     32 H          -2.3400    9.8859   -0.0118 H       1  LIG1        0.1071
@<TRIPOS>BOND
     1    27    25    1
     2    26    25   ar
     3    26    22   ar
     4    25    24   ar
     5    16    15    2
     6    16    12    1
     7    24    31    1
     8    24    23   ar
     9    22    15    1
    10    22    23   ar
    11    31    32    1
    12    15    14    1
    13    23    28    1
    14    11    17    1
    15    10     3    2
    16     6     1    1
    17     9     8    1
    18     8     7    3
    19     7     2    1
    20     1     2    2
    21     1     5    1
    22     3     2    1
    23     3     4    1
    24     5     4    2
    25     4    12    1
    26    12    13    2
    27    14    13    1
    28    14    20    2
    29    28    21    1
    30    28    29    1
    31    13    17    1
    32    17    18    1
    33    29    30    1
    34    18    19    1
