@<TRIPOS>MOLECULE
mol_data/noopt/geoms/mol2/5eg5eg-.out
 22 23 0 0 0
SMALL
GASTEIGER

@<TRIPOS>ATOM
      1 C          -2.0792   -1.7080   -0.0002 C.2     1  LIG1       -0.0072
      2 C          -0.7020   -1.7080   -0.0002 C.2     1  LIG1        0.0465
      3 C          -0.1766   -0.3757   -0.0002 C.2     1  LIG1        0.0496
      4 C          -1.1831    0.5643    0.0006 C.2     1  LIG1        0.0416
      5 S          -2.6937   -0.1528    0.0006 S.3     1  LIG1       -0.0937
      6 H          -2.8374   -2.7640   -0.0008 H       1  LIG1        0.0706
      7 C           0.0503   -2.7682   -0.0004 C.1     1  LIG1       -0.0680
      8 C           0.7454   -3.7478   -0.0006 C.1     1  LIG1       -0.1139
      9 H           1.3646   -4.6205   -0.0007 H       1  LIG1        0.1232
     10 S           1.0968   -0.1143   -0.0009 S.2     1  LIG1       -0.0495
     11 H           1.2768    1.1833   -0.0011 H       1  LIG1        0.0358
     12 C          -1.0166    1.8536    0.0014 C.ar    1  LIG1        0.0315
     13 C           0.1958    2.5069    0.0015 C.ar    1  LIG1       -0.0150
     14 C           0.0263    3.9290    0.0017 C.ar    1  LIG1        0.0158
     15 C          -1.3057    4.2790    0.0026 C.ar    1  LIG1       -0.0103
     16 S          -2.2953    2.9311    0.0023 S.2     1  LIG1       -0.0947
     17 H          -1.7708    5.4930    0.0035 H       1  LIG1        0.0704
     18 C           1.3610    1.9305    0.0013 C.3     1  LIG1       -0.0032
     19 C           2.4376    1.3979    0.0010 C.3     1  LIG1       -0.0262
     20 H           3.3967    0.9234    0.0008 H       1  LIG1        0.0313
     21 S           1.0233    4.7632    0.0012 S.3     1  LIG1       -0.1418
     22 H           0.5662    5.9909    0.0010 H       1  LIG1        0.1071
@<TRIPOS>BOND
     1    11    18    1
     2    10     3    2
     3     6     1    1
     4     9     8    1
     5     8     7    3
     6     7     2    1
     7     2     3    1
     8     2     1    2
     9     3     4    1
    10     1     5    1
    11     4     5    2
    12     4    12    1
    13    20    19    1
    14    22    21    1
    15    19    18    1
    16    21    14    1
    17    18    13    1
    18    12    13   ar
    19    12    16   ar
    20    13    14   ar
    21    14    15   ar
    22    16    15   ar
    23    15    17    1
