@<TRIPOS>MOLECULE
mol_data/noopt/geoms/mol2/5eh5eh.out
 24 25 0 0 0
SMALL
GASTEIGER

@<TRIPOS>ATOM
      1 C          -2.0792   -1.7080   -0.0002 C.ar    1  LIG1       -0.0065
      2 C          -0.7020   -1.7080   -0.0002 C.ar    1  LIG1        0.0529
      3 C          -0.1766   -0.3757   -0.0002 C.ar    1  LIG1        0.0556
      4 C          -1.1831    0.5643    0.0006 C.ar    1  LIG1        0.0489
      5 S          -2.6937   -0.1528    0.0006 S.2     1  LIG1       -0.0930
      6 H          -2.8374   -2.7640   -0.0008 H       1  LIG1        0.0706
      7 C           0.0503   -2.7682   -0.0004 C.1     1  LIG1       -0.0673
      8 C           0.7454   -3.7478   -0.0006 C.1     1  LIG1       -0.1138
      9 H           1.3646   -4.6205   -0.0007 H       1  LIG1        0.1232
     10 N           1.0969   -0.1143   -0.0009 N.pl3   1  LIG1       -0.3561
     11 H           1.5873   -0.8472   -0.4725 H       1  LIG1        0.1424
     12 H           1.2590    0.7524   -0.4725 H       1  LIG1        0.1424
     13 C          -1.0166    1.8536    0.0014 C.ar    1  LIG1        0.0449
     14 C           0.1956    2.5069    0.0205 C.ar    1  LIG1        0.0606
     15 C           0.0262    3.9290    0.0147 C.ar    1  LIG1        0.0479
     16 C          -1.3056    4.2790   -0.0075 C.ar    1  LIG1       -0.0018
     17 S          -2.2951    2.9311   -0.0215 S.2     1  LIG1       -0.0930
     18 H          -1.7706    5.4930   -0.0170 H       1  LIG1        0.0712
     19 C           1.3607    1.9305    0.0410 C.1     1  LIG1       -0.0667
     20 C           2.4372    1.3979    0.0600 C.1     1  LIG1       -0.1138
     21 H           3.3961    0.9235    0.0769 H       1  LIG1        0.1232
     22 N           1.0231    4.7633    0.0291 N.pl3   1  LIG1       -0.3566
     23 H           1.8067    4.3543   -0.4386 H       1  LIG1        0.1424
     24 H           0.7588    5.6066   -0.4386 H       1  LIG1        0.1424
@<TRIPOS>BOND
     1    12    10    1
     2    11    10    1
     3    24    22    1
     4    23    22    1
     5    17    16   ar
     6    17    13   ar
     7    18    16    1
     8    16    15   ar
     9    10     3    1
    10     6     1    1
    11     9     8    1
    12     8     7    3
    13     7     2    1
    14     1     2   ar
    15     1     5   ar
    16     3     2   ar
    17     3     4   ar
    18     5     4   ar
    19     4    13    1
    20    13    14   ar
    21    15    14   ar
    22    15    22    1
    23    14    19    1
    24    19    20    3
    25    20    21    1
