@<TRIPOS>MOLECULE
mol_data/noopt/geoms/mol2/5eh5eh-5eh5eh.out
 46 49 0 0 0
SMALL
GASTEIGER

@<TRIPOS>ATOM
      1 C          -2.0792   -1.7080   -0.0002 C.ar    1  LIG1       -0.0065
      2 C          -0.7020   -1.7080   -0.0002 C.ar    1  LIG1        0.0529
      3 C          -0.1766   -0.3757   -0.0002 C.ar    1  LIG1        0.0556
      4 C          -1.1831    0.5643    0.0006 C.ar    1  LIG1        0.0490
      5 S          -2.6937   -0.1528    0.0006 S.2     1  LIG1       -0.0930
      6 H          -2.8374   -2.7640   -0.0008 H       1  LIG1        0.0706
      7 C           0.0503   -2.7682   -0.0004 C.1     1  LIG1       -0.0673
      8 C           0.7454   -3.7478   -0.0006 C.1     1  LIG1       -0.1138
      9 H           1.3646   -4.6205   -0.0007 H       1  LIG1        0.1232
     10 N           1.0969   -0.1143   -0.0009 N.pl3   1  LIG1       -0.3561
     11 H           1.5873   -0.8472   -0.4725 H       1  LIG1        0.1424
     12 H           1.2590    0.7524   -0.4725 H       1  LIG1        0.1424
     13 C          -1.0166    1.8536    0.0014 C.ar    1  LIG1        0.0455
     14 C           0.1958    2.5069    0.0015 C.ar    1  LIG1        0.0612
     15 C           0.0263    3.9290    0.0017 C.ar    1  LIG1        0.0563
     16 C          -1.3057    4.2790    0.0026 C.ar    1  LIG1        0.0496
     17 S          -2.2953    2.9311    0.0023 S.2     1  LIG1       -0.0840
     18 C           1.3610    1.9305    0.0013 C.1     1  LIG1       -0.0666
     19 C           2.4376    1.3979    0.0010 C.1     1  LIG1       -0.1138
     20 H           3.3967    0.9234    0.0008 H       1  LIG1        0.1232
     21 N           1.0233    4.7632    0.0012 N.pl3   1  LIG1       -0.3561
     22 H           1.8027    4.3508   -0.4704 H       1  LIG1        0.1424
     23 H           0.7549    5.6032   -0.4704 H       1  LIG1        0.1424
     24 C          -1.7708    5.4930    0.0035 C.ar    1  LIG1        0.0455
     25 C          -1.0134    6.6433    0.0038 C.ar    1  LIG1        0.0612
     26 C          -1.8373    7.8147    0.0042 C.ar    1  LIG1        0.0563
     27 C          -3.1759    7.4910    0.0050 C.ar    1  LIG1        0.0496
     28 S          -3.4076    5.8350    0.0046 S.2     1  LIG1       -0.0840
     29 C           0.2858    6.6886    0.0035 C.1     1  LIG1       -0.0666
     30 C           1.4863    6.7305    0.0032 C.1     1  LIG1       -0.1138
     31 H           2.5556    6.7678    0.0029 H       1  LIG1        0.1232
     32 N          -1.3553    9.0221    0.0038 N.pl3   1  LIG1       -0.3561
     33 H          -0.4735    9.0288   -0.4678 H       1  LIG1        0.1424
     34 H          -1.9901    9.6342   -0.4678 H       1  LIG1        0.1424
     35 C          -4.1612    8.3391    0.0062 C.ar    1  LIG1        0.0449
     36 C          -4.0402    9.7108    0.0254 C.ar    1  LIG1        0.0606
     37 C          -5.3212   10.3513    0.0201 C.ar    1  LIG1        0.0479
     38 C          -6.3459    9.4314   -0.0022 C.ar    1  LIG1       -0.0018
     39 S          -5.7642    7.8638   -0.0165 S.2     1  LIG1       -0.0930
     40 H          -7.6155    9.7107   -0.0114 H       1  LIG1        0.0712
     41 C          -2.9181   10.3669    0.0458 C.1     1  LIG1       -0.0667
     42 C          -1.8813   10.9731    0.0647 C.1     1  LIG1       -0.1138
     43 H          -0.9577   11.5131    0.0815 H       1  LIG1        0.1232
     44 N          -5.4697   11.6427    0.0347 N.pl3   1  LIG1       -0.3566
     45 H          -4.6972   12.0724   -0.4330 H       1  LIG1        0.1424
     46 H          -6.3195   11.8858   -0.4330 H       1  LIG1        0.1424
@<TRIPOS>BOND
     1    12    10    1
     2    11    10    1
     3    23    21    1
     4    22    21    1
     5    34    32    1
     6    33    32    1
     7    46    44    1
     8    45    44    1
     9    39    38   ar
    10    39    35   ar
    11    40    38    1
    12    38    37   ar
    13    10     3    1
    14     6     1    1
    15     9     8    1
    16     8     7    3
    17     7     2    1
    18     1     2   ar
    19     1     5   ar
    20     2     3   ar
    21     3     4   ar
    22     4     5   ar
    23     4    13    1
    24    20    19    1
    25    19    18    3
    26    21    15    1
    27    18    14    1
    28    13    14   ar
    29    13    17   ar
    30    14    15   ar
    31    15    16   ar
    32    17    16   ar
    33    16    24    1
    34    31    30    1
    35    30    29    3
    36    29    25    1
    37    24    25   ar
    38    24    28   ar
    39    32    26    1
    40    25    26   ar
    41    26    27   ar
    42    28    27   ar
    43    27    35    1
    44    35    36   ar
    45    37    36   ar
    46    37    44    1
    47    36    41    1
    48    41    42    3
    49    42    43    1
