@<TRIPOS>MOLECULE
mol_data/noopt/geoms/mol2/5eh5eh-5eh-.out
 35 37 0 0 0
SMALL
GASTEIGER

@<TRIPOS>ATOM
      1 C          -2.0792   -1.7080   -0.0002 C.ar    1  LIG1       -0.0065
      2 C          -0.7020   -1.7080   -0.0002 C.ar    1  LIG1        0.0529
      3 C          -0.1766   -0.3757   -0.0002 C.ar    1  LIG1        0.0556
      4 C          -1.1831    0.5643    0.0006 C.ar    1  LIG1        0.0490
      5 S          -2.6937   -0.1528    0.0006 S.2     1  LIG1       -0.0930
      6 H          -2.8374   -2.7640   -0.0008 H       1  LIG1        0.0706
      7 C           0.0503   -2.7682   -0.0004 C.1     1  LIG1       -0.0673
      8 C           0.7454   -3.7478   -0.0006 C.1     1  LIG1       -0.1138
      9 H           1.3646   -4.6205   -0.0007 H       1  LIG1        0.1232
     10 N           1.0969   -0.1143   -0.0009 N.pl3   1  LIG1       -0.3561
     11 H           1.5873   -0.8472   -0.4725 H       1  LIG1        0.1424
     12 H           1.2590    0.7524   -0.4725 H       1  LIG1        0.1424
     13 C          -1.0166    1.8536    0.0014 C.ar    1  LIG1        0.0455
     14 C           0.1958    2.5069    0.0015 C.ar    1  LIG1        0.0612
     15 C           0.0263    3.9290    0.0017 C.ar    1  LIG1        0.0563
     16 C          -1.3057    4.2790    0.0026 C.ar    1  LIG1        0.0496
     17 S          -2.2953    2.9311    0.0023 S.2     1  LIG1       -0.0840
     18 C           1.3610    1.9305    0.0013 C.1     1  LIG1       -0.0666
     19 C           2.4376    1.3979    0.0010 C.1     1  LIG1       -0.1138
     20 H           3.3967    0.9234    0.0008 H       1  LIG1        0.1232
     21 N           1.0233    4.7632    0.0012 N.pl3   1  LIG1       -0.3561
     22 H           1.8027    4.3508   -0.4704 H       1  LIG1        0.1424
     23 H           0.7549    5.6032   -0.4704 H       1  LIG1        0.1424
     24 C          -1.7708    5.4930    0.0035 C.ar    1  LIG1        0.0449
     25 C          -1.0136    6.6432    0.0227 C.ar    1  LIG1        0.0606
     26 C          -1.8374    7.8147    0.0172 C.ar    1  LIG1        0.0479
     27 C          -3.1758    7.4910   -0.0051 C.ar    1  LIG1       -0.0018
     28 S          -3.4074    5.8351   -0.0192 S.2     1  LIG1       -0.0930
     29 H          -4.1610    8.3391   -0.0144 H       1  LIG1        0.0712
     30 C           0.2855    6.6885    0.0432 C.1     1  LIG1       -0.0667
     31 C           1.4858    6.7303    0.0621 C.1     1  LIG1       -0.1138
     32 H           2.5550    6.7675    0.0790 H       1  LIG1        0.1232
     33 N          -1.3555    9.0220    0.0317 N.pl3   1  LIG1       -0.3566
     34 H          -0.4717    9.0338   -0.4360 H       1  LIG1        0.1424
     35 H          -1.9883    9.6391   -0.4360 H       1  LIG1        0.1424
@<TRIPOS>BOND
     1    12    10    1
     2    11    10    1
     3    23    21    1
     4    22    21    1
     5    35    33    1
     6    34    33    1
     7    28    27   ar
     8    28    24   ar
     9    29    27    1
    10    27    26   ar
    11    10     3    1
    12     6     1    1
    13     9     8    1
    14     8     7    3
    15     7     2    1
    16     1     2   ar
    17     1     5   ar
    18     2     3   ar
    19     3     4   ar
    20     4     5   ar
    21     4    13    1
    22    20    19    1
    23    19    18    3
    24    21    15    1
    25    18    14    1
    26    13    14   ar
    27    13    17   ar
    28    14    15   ar
    29    15    16   ar
    30    17    16   ar
    31    16    24    1
    32    24    25   ar
    33    26    25   ar
    34    26    33    1
    35    25    30    1
    36    30    31    3
    37    31    32    1
