@<TRIPOS>MOLECULE
mol_data/noopt/geoms/mol2/5eh5eh5eh-5eh-.out
 46 49 0 0 0
SMALL
GASTEIGER

@<TRIPOS>ATOM
      1 C          -2.0792   -1.7080   -0.0002 C.ar    1  LIG1       -0.0065
      2 C          -0.7020   -1.7080   -0.0002 C.ar    1  LIG1        0.0529
      3 C          -0.1766   -0.3757   -0.0002 C.ar    1  LIG1        0.0556
      4 C          -1.1831    0.5643    0.0006 C.ar    1  LIG1        0.0490
      5 S          -2.6937   -0.1528    0.0006 S.2     1  LIG1       -0.0930
      6 H          -2.8374   -2.7640   -0.0008 H       1  LIG1        0.0706
      7 C           0.0503   -2.7682   -0.0004 C.1     1  LIG1       -0.0673
      8 C           0.7454   -3.7478   -0.0006 C.1     1  LIG1       -0.1138
      9 H           1.3646   -4.6205   -0.0007 H       1  LIG1        0.1232
     10 N           1.0969   -0.1143   -0.0009 N.pl3   1  LIG1       -0.3561
     11 H           1.5873   -0.8472   -0.4725 H       1  LIG1        0.1424
     12 H           1.2590    0.7524   -0.4725 H       1  LIG1        0.1424
     13 C          -1.0166    1.8536    0.0014 C.ar    1  LIG1        0.0455
     14 C           0.1956    2.5069    0.0205 C.ar    1  LIG1        0.0612
     15 C           0.0262    3.9290    0.0147 C.ar    1  LIG1        0.0563
     16 C          -1.3056    4.2790   -0.0075 C.ar    1  LIG1        0.0496
     17 S          -2.2951    2.9311   -0.0215 S.2     1  LIG1       -0.0840
     18 C           1.3607    1.9305    0.0410 C.1     1  LIG1       -0.0666
     19 C           2.4372    1.3979    0.0600 C.1     1  LIG1       -0.1138
     20 H           3.3961    0.9235    0.0769 H       1  LIG1        0.1232
     21 N           1.0231    4.7633    0.0291 N.pl3   1  LIG1       -0.3561
     22 H           1.8067    4.3543   -0.4386 H       1  LIG1        0.1424
     23 H           0.7588    5.6066   -0.4386 H       1  LIG1        0.1424
     24 C          -1.7706    5.4930   -0.0170 C.ar    1  LIG1        0.0455
     25 C          -1.0134    6.6433   -0.0043 C.ar    1  LIG1        0.0612
     26 C          -1.8371    7.8147   -0.0210 C.ar    1  LIG1        0.0563
     27 C          -3.1754    7.4910   -0.0446 C.ar    1  LIG1        0.0496
     28 S          -3.4072    5.8350   -0.0470 S.2     1  LIG1       -0.0840
     29 C           0.2856    6.6886    0.0196 C.1     1  LIG1       -0.0666
     30 C           1.4859    6.7305    0.0416 C.1     1  LIG1       -0.1138
     31 H           2.5551    6.7678    0.0613 H       1  LIG1        0.1232
     32 N          -1.3551    9.0221   -0.0141 N.pl3   1  LIG1       -0.3561
     33 H          -0.4723    9.0313   -0.4838 H       1  LIG1        0.1424
     34 H          -1.9889    9.6367   -0.4838 H       1  LIG1        0.1424
     35 C          -4.1606    8.3390   -0.0631 C.ar    1  LIG1        0.0449
     36 C          -4.0394    9.7108   -0.0749 C.ar    1  LIG1        0.0606
     37 C          -5.3202   10.3513   -0.0953 C.ar    1  LIG1        0.0479
     38 C          -6.3451    9.4313   -0.0971 C.ar    1  LIG1       -0.0018
     39 S          -5.7637    7.8636   -0.0756 S.2     1  LIG1       -0.0930
     40 H          -7.6146    9.7105   -0.1131 H       1  LIG1        0.0712
     41 C          -2.9172   10.3670   -0.0689 C.1     1  LIG1       -0.0667
     42 C          -1.8802   10.9733   -0.0634 C.1     1  LIG1       -0.1138
     43 H          -0.9565   11.5134   -0.0584 H       1  LIG1        0.1232
     44 N          -5.4685   11.6427   -0.1100 N.pl3   1  LIG1       -0.3566
     45 H          -4.6947   12.0617   -0.5852 H       1  LIG1        0.1424
     46 H          -6.3170   11.8754   -0.5852 H       1  LIG1        0.1424
@<TRIPOS>BOND
     1    46    44    1
     2    45    44    1
     3    34    32    1
     4    33    32    1
     5    12    10    1
     6    11    10    1
     7    23    21    1
     8    22    21    1
     9    40    38    1
    10    44    37    1
    11    38    37   ar
    12    38    39   ar
    13    37    36   ar
    14    39    35   ar
    15    36    41    1
    16    36    35   ar
    17    41    42    3
    18    42    43    1
    19    35    27    1
    20    28    27   ar
    21    28    24   ar
    22    27    26   ar
    23    17    16   ar
    24    17    13   ar
    25    26    32    1
    26    26    25   ar
    27    24    16    1
    28    24    25   ar
    29    16    15   ar
    30    25    29    1
    31    10     3    1
    32     6     1    1
    33     9     8    1
    34     8     7    3
    35     7     2    1
    36     1     2   ar
    37     1     5   ar
    38     2     3   ar
    39     3     4   ar
    40     5     4   ar
    41     4    13    1
    42    13    14   ar
    43    15    14   ar
    44    15    21    1
    45    29    30    3
    46    14    18    1
    47    18    19    3
    48    30    31    1
    49    19    20    1
