@<TRIPOS>MOLECULE
mol_data/noopt/geoms/mol2/5eh5eh-.out
 24 25 0 0 0
SMALL
GASTEIGER

@<TRIPOS>ATOM
      1 C          -2.0792   -1.7080   -0.0002 C.ar    1  LIG1       -0.0065
      2 C          -0.7020   -1.7080   -0.0002 C.ar    1  LIG1        0.0529
      3 C          -0.1766   -0.3757   -0.0002 C.ar    1  LIG1        0.0556
      4 C          -1.1831    0.5643    0.0006 C.ar    1  LIG1        0.0489
      5 S          -2.6937   -0.1528    0.0006 S.2     1  LIG1       -0.0930
      6 H          -2.8374   -2.7640   -0.0008 H       1  LIG1        0.0706
      7 C           0.0503   -2.7682   -0.0004 C.1     1  LIG1       -0.0673
      8 C           0.7454   -3.7478   -0.0006 C.1     1  LIG1       -0.1138
      9 H           1.3646   -4.6205   -0.0007 H       1  LIG1        0.1232
     10 N           1.0969   -0.1143   -0.0009 N.pl3   1  LIG1       -0.3561
     11 H           1.5873   -0.8472   -0.4725 H       1  LIG1        0.1424
     12 H           1.2590    0.7524   -0.4725 H       1  LIG1        0.1424
     13 C          -1.0166    1.8536    0.0014 C.ar    1  LIG1        0.0449
     14 C           0.1958    2.5069    0.0015 C.ar    1  LIG1        0.0606
     15 C           0.0263    3.9290    0.0017 C.ar    1  LIG1        0.0479
     16 C          -1.3057    4.2790    0.0026 C.ar    1  LIG1       -0.0018
     17 S          -2.2953    2.9311    0.0023 S.2     1  LIG1       -0.0930
     18 H          -1.7708    5.4930    0.0035 H       1  LIG1        0.0712
     19 C           1.3610    1.9305    0.0013 C.1     1  LIG1       -0.0667
     20 C           2.4376    1.3979    0.0010 C.1     1  LIG1       -0.1138
     21 H           3.3967    0.9234    0.0008 H       1  LIG1        0.1232
     22 N           1.0233    4.7632    0.0012 N.pl3   1  LIG1       -0.3566
     23 H           1.8027    4.3508   -0.4704 H       1  LIG1        0.1424
     24 H           0.7549    5.6032   -0.4704 H       1  LIG1        0.1424
@<TRIPOS>BOND
     1    12    10    1
     2    11    10    1
     3    24    22    1
     4    23    22    1
     5    10     3    1
     6     6     1    1
     7     9     8    1
     8     8     7    3
     9     7     2    1
    10     1     2   ar
    11     1     5   ar
    12     3     2   ar
    13     3     4   ar
    14     5     4   ar
    15     4    13    1
    16    21    20    1
    17    20    19    3
    18    22    15    1
    19    19    14    1
    20    13    14   ar
    21    13    17   ar
    22    14    15   ar
    23    15    16   ar
    24    17    16   ar
    25    16    18    1
