@<TRIPOS>MOLECULE
mol_data/noopt/geoms/mol2/5eh5eh-5eh-5eh.out
 46 49 0 0 0
SMALL
GASTEIGER

@<TRIPOS>ATOM
      1 C          -2.0792   -1.7080   -0.0002 C.ar    1  LIG1       -0.0065
      2 C          -0.7020   -1.7080   -0.0002 C.ar    1  LIG1        0.0529
      3 C          -0.1766   -0.3757   -0.0002 C.ar    1  LIG1        0.0556
      4 C          -1.1831    0.5643    0.0006 C.ar    1  LIG1        0.0490
      5 S          -2.6937   -0.1528    0.0006 S.2     1  LIG1       -0.0930
      6 H          -2.8374   -2.7640   -0.0008 H       1  LIG1        0.0706
      7 C           0.0503   -2.7682   -0.0004 C.1     1  LIG1       -0.0673
      8 C           0.7454   -3.7478   -0.0006 C.1     1  LIG1       -0.1138
      9 H           1.3646   -4.6205   -0.0007 H       1  LIG1        0.1232
     10 N           1.0969   -0.1143   -0.0009 N.pl3   1  LIG1       -0.3561
     11 H           1.5873   -0.8472   -0.4725 H       1  LIG1        0.1424
     12 H           1.2590    0.7524   -0.4725 H       1  LIG1        0.1424
     13 C          -1.0166    1.8536    0.0014 C.ar    1  LIG1        0.0455
     14 C           0.1958    2.5069    0.0015 C.ar    1  LIG1        0.0612
     15 C           0.0263    3.9290    0.0017 C.ar    1  LIG1        0.0563
     16 C          -1.3057    4.2790    0.0026 C.ar    1  LIG1        0.0496
     17 S          -2.2953    2.9311    0.0023 S.2     1  LIG1       -0.0840
     18 C           1.3610    1.9305    0.0013 C.1     1  LIG1       -0.0666
     19 C           2.4376    1.3979    0.0010 C.1     1  LIG1       -0.1138
     20 H           3.3967    0.9234    0.0008 H       1  LIG1        0.1232
     21 N           1.0233    4.7632    0.0012 N.pl3   1  LIG1       -0.3561
     22 H           1.8027    4.3508   -0.4704 H       1  LIG1        0.1424
     23 H           0.7549    5.6032   -0.4704 H       1  LIG1        0.1424
     24 C          -1.7708    5.4930    0.0035 C.ar    1  LIG1        0.0455
     25 C          -1.0136    6.6432    0.0227 C.ar    1  LIG1        0.0612
     26 C          -1.8374    7.8147    0.0172 C.ar    1  LIG1        0.0563
     27 C          -3.1758    7.4910   -0.0051 C.ar    1  LIG1        0.0496
     28 S          -3.4074    5.8351   -0.0192 S.2     1  LIG1       -0.0840
     29 C           0.2855    6.6885    0.0432 C.1     1  LIG1       -0.0666
     30 C           1.4858    6.7303    0.0621 C.1     1  LIG1       -0.1138
     31 H           2.5550    6.7675    0.0790 H       1  LIG1        0.1232
     32 N          -1.3555    9.0220    0.0317 N.pl3   1  LIG1       -0.3561
     33 H          -0.4717    9.0338   -0.4360 H       1  LIG1        0.1424
     34 H          -1.9883    9.6391   -0.4360 H       1  LIG1        0.1424
     35 C          -4.1610    8.3391   -0.0144 C.ar    1  LIG1        0.0449
     36 C          -4.0401    9.7110   -0.0016 C.ar    1  LIG1        0.0606
     37 C          -5.3209   10.3515   -0.0181 C.ar    1  LIG1        0.0479
     38 C          -6.3455    9.4316   -0.0417 C.ar    1  LIG1       -0.0018
     39 S          -5.7639    7.8638   -0.0443 S.2     1  LIG1       -0.0930
     40 H          -7.6151    9.7108   -0.0601 H       1  LIG1        0.0712
     41 C          -2.9181   10.3671    0.0222 C.1     1  LIG1       -0.0667
     42 C          -1.8813   10.9734    0.0443 C.1     1  LIG1       -0.1138
     43 H          -0.9578   11.5134    0.0639 H       1  LIG1        0.1232
     44 N          -5.4695   11.6430   -0.0111 N.pl3   1  LIG1       -0.3566
     45 H          -4.6967   12.0699   -0.4808 H       1  LIG1        0.1424
     46 H          -6.3189   11.8833   -0.4808 H       1  LIG1        0.1424
@<TRIPOS>BOND
     1    46    44    1
     2    45    44    1
     3    12    10    1
     4    11    10    1
     5    23    21    1
     6    22    21    1
     7    34    32    1
     8    33    32    1
     9    40    38    1
    10    39    38   ar
    11    39    35   ar
    12    38    37   ar
    13    28    27   ar
    14    28    24   ar
    15    37    44    1
    16    37    36   ar
    17    35    27    1
    18    35    36   ar
    19    27    26   ar
    20    36    41    1
    21    10     3    1
    22     6     1    1
    23     9     8    1
    24     8     7    3
    25     7     2    1
    26     1     2   ar
    27     1     5   ar
    28     2     3   ar
    29     3     4   ar
    30     4     5   ar
    31     4    13    1
    32    20    19    1
    33    19    18    3
    34    21    15    1
    35    18    14    1
    36    13    14   ar
    37    13    17   ar
    38    14    15   ar
    39    15    16   ar
    40    17    16   ar
    41    16    24    1
    42    24    25   ar
    43    26    25   ar
    44    26    32    1
    45    41    42    3
    46    25    29    1
    47    29    30    3
    48    42    43    1
    49    30    31    1
