@<TRIPOS>MOLECULE
mol_data/noopt/geoms/mol2/5eh5eh5eh-.out
 35 37 0 0 0
SMALL
GASTEIGER

@<TRIPOS>ATOM
      1 C          -2.0792   -1.7080   -0.0002 C.ar    1  LIG1       -0.0065
      2 C          -0.7020   -1.7080   -0.0002 C.ar    1  LIG1        0.0529
      3 C          -0.1766   -0.3757   -0.0002 C.ar    1  LIG1        0.0556
      4 C          -1.1831    0.5643    0.0006 C.ar    1  LIG1        0.0490
      5 S          -2.6937   -0.1528    0.0006 S.2     1  LIG1       -0.0930
      6 H          -2.8374   -2.7640   -0.0008 H       1  LIG1        0.0706
      7 C           0.0503   -2.7682   -0.0004 C.1     1  LIG1       -0.0673
      8 C           0.7454   -3.7478   -0.0006 C.1     1  LIG1       -0.1138
      9 H           1.3646   -4.6205   -0.0007 H       1  LIG1        0.1232
     10 N           1.0969   -0.1143   -0.0009 N.pl3   1  LIG1       -0.3561
     11 H           1.5873   -0.8472   -0.4725 H       1  LIG1        0.1424
     12 H           1.2590    0.7524   -0.4725 H       1  LIG1        0.1424
     13 C          -1.0166    1.8536    0.0014 C.ar    1  LIG1        0.0455
     14 C           0.1956    2.5069    0.0205 C.ar    1  LIG1        0.0612
     15 C           0.0262    3.9290    0.0147 C.ar    1  LIG1        0.0563
     16 C          -1.3056    4.2790   -0.0075 C.ar    1  LIG1        0.0496
     17 S          -2.2951    2.9311   -0.0215 S.2     1  LIG1       -0.0840
     18 C           1.3607    1.9305    0.0410 C.1     1  LIG1       -0.0666
     19 C           2.4372    1.3979    0.0600 C.1     1  LIG1       -0.1138
     20 H           3.3961    0.9235    0.0769 H       1  LIG1        0.1232
     21 N           1.0231    4.7633    0.0291 N.pl3   1  LIG1       -0.3561
     22 H           1.8067    4.3543   -0.4386 H       1  LIG1        0.1424
     23 H           0.7588    5.6066   -0.4386 H       1  LIG1        0.1424
     24 C          -1.7706    5.4930   -0.0170 C.ar    1  LIG1        0.0449
     25 C          -1.0134    6.6433   -0.0043 C.ar    1  LIG1        0.0606
     26 C          -1.8371    7.8147   -0.0210 C.ar    1  LIG1        0.0479
     27 C          -3.1754    7.4910   -0.0446 C.ar    1  LIG1       -0.0018
     28 S          -3.4072    5.8350   -0.0470 S.2     1  LIG1       -0.0930
     29 H          -4.1606    8.3390   -0.0631 H       1  LIG1        0.0712
     30 C           0.2856    6.6886    0.0196 C.1     1  LIG1       -0.0667
     31 C           1.4859    6.7305    0.0416 C.1     1  LIG1       -0.1138
     32 H           2.5551    6.7678    0.0613 H       1  LIG1        0.1232
     33 N          -1.3551    9.0221   -0.0141 N.pl3   1  LIG1       -0.3566
     34 H          -0.4723    9.0313   -0.4838 H       1  LIG1        0.1424
     35 H          -1.9889    9.6367   -0.4838 H       1  LIG1        0.1424
@<TRIPOS>BOND
     1    35    33    1
     2    34    33    1
     3    12    10    1
     4    11    10    1
     5    23    21    1
     6    22    21    1
     7    29    27    1
     8    28    27   ar
     9    28    24   ar
    10    27    26   ar
    11    17    16   ar
    12    17    13   ar
    13    26    33    1
    14    26    25   ar
    15    24    16    1
    16    24    25   ar
    17    16    15   ar
    18    25    30    1
    19    10     3    1
    20     6     1    1
    21     9     8    1
    22     8     7    3
    23     7     2    1
    24     1     2   ar
    25     1     5   ar
    26     3     2   ar
    27     3     4   ar
    28     5     4   ar
    29     4    13    1
    30    13    14   ar
    31    15    14   ar
    32    15    21    1
    33    30    31    3
    34    14    18    1
    35    18    19    3
    36    31    32    1
    37    19    20    1
