@<TRIPOS>MOLECULE
mol_data/noopt/geoms/mol2/5eh5eh5eh5eh.out
 46 49 0 0 0
SMALL
GASTEIGER

@<TRIPOS>ATOM
      1 C          -2.0792   -1.7080   -0.0002 C.ar    1  LIG1       -0.0065
      2 C          -0.7020   -1.7080   -0.0002 C.ar    1  LIG1        0.0529
      3 C          -0.1766   -0.3757   -0.0002 C.ar    1  LIG1        0.0556
      4 C          -1.1831    0.5643    0.0006 C.ar    1  LIG1        0.0490
      5 S          -2.6937   -0.1528    0.0006 S.2     1  LIG1       -0.0930
      6 H          -2.8374   -2.7640   -0.0008 H       1  LIG1        0.0706
      7 C           0.0503   -2.7682   -0.0004 C.1     1  LIG1       -0.0673
      8 C           0.7454   -3.7478   -0.0006 C.1     1  LIG1       -0.1138
      9 H           1.3646   -4.6205   -0.0007 H       1  LIG1        0.1232
     10 N           1.0969   -0.1143   -0.0009 N.pl3   1  LIG1       -0.3561
     11 H           1.5873   -0.8472   -0.4725 H       1  LIG1        0.1424
     12 H           1.2590    0.7524   -0.4725 H       1  LIG1        0.1424
     13 C          -1.0166    1.8536    0.0014 C.ar    1  LIG1        0.0455
     14 C           0.1956    2.5069    0.0205 C.ar    1  LIG1        0.0612
     15 C           0.0262    3.9290    0.0147 C.ar    1  LIG1        0.0563
     16 C          -1.3056    4.2790   -0.0075 C.ar    1  LIG1        0.0496
     17 S          -2.2951    2.9311   -0.0215 S.2     1  LIG1       -0.0840
     18 C           1.3607    1.9305    0.0410 C.1     1  LIG1       -0.0666
     19 C           2.4372    1.3979    0.0600 C.1     1  LIG1       -0.1138
     20 H           3.3961    0.9235    0.0769 H       1  LIG1        0.1232
     21 N           1.0231    4.7633    0.0291 N.pl3   1  LIG1       -0.3561
     22 H           1.8067    4.3543   -0.4386 H       1  LIG1        0.1424
     23 H           0.7588    5.6066   -0.4386 H       1  LIG1        0.1424
     24 C          -1.7706    5.4930   -0.0170 C.ar    1  LIG1        0.0455
     25 C          -1.0132    6.6432   -0.0232 C.ar    1  LIG1        0.0612
     26 C          -1.8369    7.8147   -0.0340 C.ar    1  LIG1        0.0563
     27 C          -3.1756    7.4910   -0.0345 C.ar    1  LIG1        0.0496
     28 S          -3.4074    5.8350   -0.0232 S.2     1  LIG1       -0.0840
     29 C           0.2860    6.6885   -0.0202 C.1     1  LIG1       -0.0666
     30 C           1.4865    6.7303   -0.0173 C.1     1  LIG1       -0.1138
     31 H           2.5558    6.7675   -0.0148 H       1  LIG1        0.1232
     32 N          -1.3549    9.0220   -0.0421 N.pl3   1  LIG1       -0.3561
     33 H          -0.4741    9.0260   -0.5155 H       1  LIG1        0.1424
     34 H          -1.9906    9.6316   -0.5156 H       1  LIG1        0.1424
     35 C          -4.1608    8.3391   -0.0426 C.ar    1  LIG1        0.0449
     36 C          -4.0399    9.7109   -0.0290 C.ar    1  LIG1        0.0606
     37 C          -5.3207   10.3514   -0.0442 C.ar    1  LIG1        0.0479
     38 C          -6.3454    9.4315   -0.0677 C.ar    1  LIG1       -0.0018
     39 S          -5.7637    7.8638   -0.0716 S.2     1  LIG1       -0.0930
     40 H          -7.6149    9.7107   -0.0849 H       1  LIG1        0.0712
     41 C          -2.9179   10.3671   -0.0056 C.1     1  LIG1       -0.0667
     42 C          -1.8811   10.9733    0.0160 C.1     1  LIG1       -0.1138
     43 H          -0.9576   11.5134    0.0353 H       1  LIG1        0.1232
     44 N          -5.4693   11.6429   -0.0363 N.pl3   1  LIG1       -0.3566
     45 H          -4.6965   12.0702   -0.5057 H       1  LIG1        0.1424
     46 H          -6.3188   11.8836   -0.5057 H       1  LIG1        0.1424
@<TRIPOS>BOND
     1    34    32    1
     2    33    32    1
     3    46    44    1
     4    45    44    1
     5    12    10    1
     6    11    10    1
     7    23    21    1
     8    22    21    1
     9    40    38    1
    10    39    38   ar
    11    39    35   ar
    12    38    37   ar
    13    37    44    1
    14    37    36   ar
    15    35    27    1
    16    35    36   ar
    17    32    26    1
    18    27    26   ar
    19    27    28   ar
    20    26    25   ar
    21    36    41    1
    22    25    29    1
    23    25    24   ar
    24    28    24   ar
    25    17    16   ar
    26    17    13   ar
    27    29    30    3
    28    30    31    1
    29    24    16    1
    30    16    15   ar
    31    41    42    3
    32    10     3    1
    33     6     1    1
    34     9     8    1
    35     8     7    3
    36     7     2    1
    37     2     1   ar
    38     2     3   ar
    39     1     5   ar
    40     3     4   ar
    41     5     4   ar
    42     4    13    1
    43    13    14   ar
    44    15    14   ar
    45    15    21    1
    46    42    43    1
    47    14    18    1
    48    18    19    3
    49    19    20    1
