@<TRIPOS>MOLECULE
mol_data/noopt/geoms/mol2/5ei.out
 14 14 0 0 0
SMALL
GASTEIGER

@<TRIPOS>ATOM
      1 C          -2.0792   -1.7080   -0.0002 C.ar    1  LIG1       -0.0087
      2 C          -0.7020   -1.7080   -0.0002 C.ar    1  LIG1        0.0346
      3 C          -0.1766   -0.3757   -0.0002 C.ar    1  LIG1       -0.0281
      4 C          -1.1831    0.5643    0.0006 C.ar    1  LIG1       -0.0202
      5 S          -2.6937   -0.1528    0.0006 S.2     1  LIG1       -0.1036
      6 H          -2.8374   -2.7640   -0.0008 H       1  LIG1        0.0706
      7 H          -1.0166    1.8536    0.0014 H       1  LIG1        0.0696
      8 C           0.0503   -2.7682   -0.0004 C.1     1  LIG1       -0.0689
      9 C           0.7454   -3.7478   -0.0006 C.1     1  LIG1       -0.1139
     10 H           1.3646   -4.6205   -0.0007 H       1  LIG1        0.1232
     11 C           1.0972   -0.1142   -0.0009 C.3     1  LIG1       -0.0380
     12 H           1.2712    0.8133    0.5033 H       1  LIG1        0.0278
     13 H           1.4460   -0.0426   -1.0099 H       1  LIG1        0.0278
     14 H           1.6224   -0.8983    0.5033 H       1  LIG1        0.0278
@<TRIPOS>BOND
     1    13    11    1
     2    11     3    1
     3    11    14    1
     4    11    12    1
     5     6     1    1
     6    10     9    1
     7     9     8    3
     8     8     2    1
     9     1     2   ar
    10     1     5   ar
    11     2     3   ar
    12     3     4   ar
    13     4     5   ar
    14     4     7    1
