@<TRIPOS>MOLECULE
mol_data/noopt/geoms/mol2/5ei5ei-5ei5ei.out
 50 53 0 0 0
SMALL
GASTEIGER

@<TRIPOS>ATOM
      1 C          -2.0792   -1.7080   -0.0002 C.ar    1  LIG1       -0.0081
      2 C          -0.7020   -1.7080   -0.0002 C.ar    1  LIG1        0.0352
      3 C          -0.1766   -0.3757   -0.0002 C.ar    1  LIG1       -0.0198
      4 C          -1.1831    0.5643    0.0006 C.ar    1  LIG1        0.0312
      5 S          -2.6937   -0.1528    0.0006 S.2     1  LIG1       -0.0946
      6 H          -2.8374   -2.7640   -0.0008 H       1  LIG1        0.0706
      7 C           0.0503   -2.7682   -0.0004 C.1     1  LIG1       -0.0688
      8 C           0.7454   -3.7478   -0.0006 C.1     1  LIG1       -0.1139
      9 H           1.3646   -4.6205   -0.0007 H       1  LIG1        0.1232
     10 C           1.0972   -0.1142   -0.0009 C.3     1  LIG1       -0.0374
     11 H           1.2712    0.8133    0.5033 H       1  LIG1        0.0278
     12 H           1.4460   -0.0426   -1.0099 H       1  LIG1        0.0278
     13 H           1.6224   -0.8983    0.5033 H       1  LIG1        0.0278
     14 C          -1.0166    1.8536    0.0014 C.ar    1  LIG1        0.0424
     15 C           0.1958    2.5069    0.0015 C.ar    1  LIG1        0.0435
     16 C           0.0263    3.9290    0.0017 C.ar    1  LIG1       -0.0191
     17 C          -1.3057    4.2790    0.0026 C.ar    1  LIG1        0.0318
     18 S          -2.2953    2.9311    0.0023 S.2     1  LIG1       -0.0856
     19 C           1.3610    1.9305    0.0013 C.1     1  LIG1       -0.0682
     20 C           2.4376    1.3979    0.0010 C.1     1  LIG1       -0.1139
     21 H           3.3967    0.9234    0.0008 H       1  LIG1        0.1232
     22 C           1.0235    4.7634    0.0012 C.3     1  LIG1       -0.0374
     23 H           0.7366    5.6625    0.5055 H       1  LIG1        0.0278
     24 H           1.2967    4.9921   -1.0078 H       1  LIG1        0.0278
     25 H           1.8579    4.3223    0.5054 H       1  LIG1        0.0278
     26 C          -1.7708    5.4930    0.0035 C.ar    1  LIG1        0.0424
     27 C          -1.0134    6.6433    0.0038 C.ar    1  LIG1        0.0435
     28 C          -1.8373    7.8147    0.0042 C.ar    1  LIG1       -0.0191
     29 C          -3.1759    7.4910    0.0050 C.ar    1  LIG1        0.0318
     30 S          -3.4076    5.8350    0.0046 S.2     1  LIG1       -0.0856
     31 C           0.2858    6.6886    0.0035 C.1     1  LIG1       -0.0682
     32 C           1.4863    6.7305    0.0032 C.1     1  LIG1       -0.1139
     33 H           2.5556    6.7678    0.0029 H       1  LIG1        0.1232
     34 C          -1.3552    9.0224    0.0038 C.3     1  LIG1       -0.0374
     35 H          -2.0343    9.6777    0.5081 H       1  LIG1        0.0278
     36 H          -1.2231    9.3534   -1.0052 H       1  LIG1        0.0278
     37 H          -0.4115    9.0299    0.5080 H       1  LIG1        0.0278
     38 C          -4.1612    8.3391    0.0062 C.ar    1  LIG1        0.0418
     39 C          -4.0402    9.7108    0.0254 C.ar    1  LIG1        0.0428
     40 C          -5.3212   10.3513    0.0201 C.ar    1  LIG1       -0.0274
     41 C          -6.3459    9.4314   -0.0022 C.ar    1  LIG1       -0.0196
     42 S          -5.7642    7.8638   -0.0165 S.2     1  LIG1       -0.0946
     43 H          -7.6155    9.7107   -0.0114 H       1  LIG1        0.0696
     44 C          -2.9181   10.3669    0.0458 C.1     1  LIG1       -0.0682
     45 C          -1.8813   10.9731    0.0647 C.1     1  LIG1       -0.1139
     46 H          -0.9577   11.5131    0.0815 H       1  LIG1        0.1232
     47 C          -5.4698   11.6430    0.0347 C.3     1  LIG1       -0.0380
     48 H          -6.3778   11.8919    0.5431 H       1  LIG1        0.0278
     49 H          -5.5119   12.0086   -0.9701 H       1  LIG1        0.0278
     50 H          -4.6419   12.0915    0.5430 H       1  LIG1        0.0278
@<TRIPOS>BOND
     1    12    10    1
     2    24    22    1
     3    36    34    1
     4    49    47    1
     5    42    41   ar
     6    42    38   ar
     7    43    41    1
     8    41    40   ar
     9    10     3    1
    10    10    13    1
    11    10    11    1
    12     6     1    1
    13     9     8    1
    14     8     7    3
    15     7     2    1
    16     1     2   ar
    17     1     5   ar
    18     3     2   ar
    19     3     4   ar
    20     5     4   ar
    21     4    14    1
    22    21    20    1
    23    20    19    3
    24    22    16    1
    25    22    25    1
    26    22    23    1
    27    19    15    1
    28    14    15   ar
    29    14    18   ar
    30    15    16   ar
    31    16    17   ar
    32    18    17   ar
    33    17    26    1
    34    33    32    1
    35    32    31    3
    36    31    27    1
    37    26    27   ar
    38    26    30   ar
    39    34    28    1
    40    34    37    1
    41    34    35    1
    42    27    28   ar
    43    28    29   ar
    44    30    29   ar
    45    29    38    1
    46    38    39   ar
    47    40    39   ar
    48    40    47    1
    49    39    44    1
    50    47    50    1
    51    47    48    1
    52    44    45    3
    53    45    46    1
