@<TRIPOS>MOLECULE
mol_data/noopt/geoms/mol2/5ei5ei-5ei-.out
 38 40 0 0 0
SMALL
GASTEIGER

@<TRIPOS>ATOM
      1 C          -2.0792   -1.7080   -0.0002 C.ar    1  LIG1       -0.0081
      2 C          -0.7020   -1.7080   -0.0002 C.ar    1  LIG1        0.0352
      3 C          -0.1766   -0.3757   -0.0002 C.ar    1  LIG1       -0.0198
      4 C          -1.1831    0.5643    0.0006 C.ar    1  LIG1        0.0312
      5 S          -2.6937   -0.1528    0.0006 S.2     1  LIG1       -0.0946
      6 H          -2.8374   -2.7640   -0.0008 H       1  LIG1        0.0706
      7 C           0.0503   -2.7682   -0.0004 C.1     1  LIG1       -0.0688
      8 C           0.7454   -3.7478   -0.0006 C.1     1  LIG1       -0.1139
      9 H           1.3646   -4.6205   -0.0007 H       1  LIG1        0.1232
     10 C           1.0972   -0.1142   -0.0009 C.3     1  LIG1       -0.0374
     11 H           1.2712    0.8133    0.5033 H       1  LIG1        0.0278
     12 H           1.4460   -0.0426   -1.0099 H       1  LIG1        0.0278
     13 H           1.6224   -0.8983    0.5033 H       1  LIG1        0.0278
     14 C          -1.0166    1.8536    0.0014 C.ar    1  LIG1        0.0424
     15 C           0.1958    2.5069    0.0015 C.ar    1  LIG1        0.0435
     16 C           0.0263    3.9290    0.0017 C.ar    1  LIG1       -0.0191
     17 C          -1.3057    4.2790    0.0026 C.ar    1  LIG1        0.0318
     18 S          -2.2953    2.9311    0.0023 S.2     1  LIG1       -0.0856
     19 C           1.3610    1.9305    0.0013 C.1     1  LIG1       -0.0682
     20 C           2.4376    1.3979    0.0010 C.1     1  LIG1       -0.1139
     21 H           3.3967    0.9234    0.0008 H       1  LIG1        0.1232
     22 C           1.0235    4.7634    0.0012 C.3     1  LIG1       -0.0374
     23 H           0.7366    5.6625    0.5055 H       1  LIG1        0.0278
     24 H           1.2967    4.9921   -1.0078 H       1  LIG1        0.0278
     25 H           1.8579    4.3223    0.5054 H       1  LIG1        0.0278
     26 C          -1.7708    5.4930    0.0035 C.ar    1  LIG1        0.0418
     27 C          -1.0136    6.6432    0.0227 C.ar    1  LIG1        0.0428
     28 C          -1.8374    7.8147    0.0172 C.ar    1  LIG1       -0.0274
     29 C          -3.1758    7.4910   -0.0051 C.ar    1  LIG1       -0.0196
     30 S          -3.4074    5.8351   -0.0192 S.2     1  LIG1       -0.0946
     31 H          -4.1610    8.3391   -0.0144 H       1  LIG1        0.0696
     32 C           0.2855    6.6885    0.0432 C.1     1  LIG1       -0.0682
     33 C           1.4858    6.7303    0.0621 C.1     1  LIG1       -0.1139
     34 H           2.5550    6.7675    0.0790 H       1  LIG1        0.1232
     35 C          -1.3554    9.0223    0.0317 C.3     1  LIG1       -0.0380
     36 H          -2.0366    9.6722    0.5401 H       1  LIG1        0.0278
     37 H          -1.2191    9.3640   -0.9731 H       1  LIG1        0.0278
     38 H          -0.4138    9.0244    0.5400 H       1  LIG1        0.0278
@<TRIPOS>BOND
     1    12    10    1
     2    24    22    1
     3    37    35    1
     4    30    29   ar
     5    30    26   ar
     6    31    29    1
     7    29    28   ar
     8    10     3    1
     9    10    13    1
    10    10    11    1
    11     6     1    1
    12     9     8    1
    13     8     7    3
    14     7     2    1
    15     1     2   ar
    16     1     5   ar
    17     3     2   ar
    18     3     4   ar
    19     5     4   ar
    20     4    14    1
    21    21    20    1
    22    20    19    3
    23    22    16    1
    24    22    25    1
    25    22    23    1
    26    19    15    1
    27    14    15   ar
    28    14    18   ar
    29    15    16   ar
    30    16    17   ar
    31    18    17   ar
    32    17    26    1
    33    26    27   ar
    34    28    27   ar
    35    28    35    1
    36    27    32    1
    37    35    38    1
    38    35    36    1
    39    32    33    3
    40    33    34    1
