@<TRIPOS>MOLECULE
mol_data/noopt/geoms/mol2/5ei5ei5ei5ei-.out
 50 53 0 0 0
SMALL
GASTEIGER

@<TRIPOS>ATOM
      1 C          -2.0792   -1.7080   -0.0002 C.ar    1  LIG1       -0.0081
      2 C          -0.7020   -1.7080   -0.0002 C.ar    1  LIG1        0.0352
      3 C          -0.1766   -0.3757   -0.0002 C.ar    1  LIG1       -0.0198
      4 C          -1.1831    0.5643    0.0006 C.ar    1  LIG1        0.0312
      5 S          -2.6937   -0.1528    0.0006 S.2     1  LIG1       -0.0946
      6 H          -2.8374   -2.7640   -0.0008 H       1  LIG1        0.0706
      7 C           0.0503   -2.7682   -0.0004 C.1     1  LIG1       -0.0688
      8 C           0.7454   -3.7478   -0.0006 C.1     1  LIG1       -0.1139
      9 H           1.3646   -4.6205   -0.0007 H       1  LIG1        0.1232
     10 C           1.0972   -0.1142   -0.0009 C.3     1  LIG1       -0.0374
     11 H           1.2712    0.8133    0.5033 H       1  LIG1        0.0278
     12 H           1.4460   -0.0426   -1.0099 H       1  LIG1        0.0278
     13 H           1.6224   -0.8983    0.5033 H       1  LIG1        0.0278
     14 C          -1.0166    1.8536    0.0014 C.ar    1  LIG1        0.0424
     15 C           0.1956    2.5069    0.0205 C.ar    1  LIG1        0.0435
     16 C           0.0262    3.9290    0.0147 C.ar    1  LIG1       -0.0191
     17 C          -1.3056    4.2790   -0.0075 C.ar    1  LIG1        0.0318
     18 S          -2.2951    2.9311   -0.0215 S.2     1  LIG1       -0.0856
     19 C           1.3607    1.9305    0.0410 C.1     1  LIG1       -0.0682
     20 C           2.4372    1.3979    0.0600 C.1     1  LIG1       -0.1139
     21 H           3.3961    0.9235    0.0769 H       1  LIG1        0.1232
     22 C           1.0233    4.7634    0.0291 C.3     1  LIG1       -0.0374
     23 H           0.7319    5.6588    0.5375 H       1  LIG1        0.0278
     24 H           1.3054    4.9995   -0.9757 H       1  LIG1        0.0278
     25 H           1.8532    4.3187    0.5374 H       1  LIG1        0.0278
     26 C          -1.7706    5.4930   -0.0170 C.ar    1  LIG1        0.0424
     27 C          -1.0132    6.6432   -0.0232 C.ar    1  LIG1        0.0435
     28 C          -1.8369    7.8147   -0.0340 C.ar    1  LIG1       -0.0191
     29 C          -3.1756    7.4910   -0.0345 C.ar    1  LIG1        0.0318
     30 S          -3.4074    5.8350   -0.0232 S.2     1  LIG1       -0.0856
     31 C           0.2860    6.6885   -0.0202 C.1     1  LIG1       -0.0682
     32 C           1.4865    6.7303   -0.0173 C.1     1  LIG1       -0.1139
     33 H           2.5558    6.7675   -0.0148 H       1  LIG1        0.1232
     34 C          -1.3548    9.0223   -0.0421 C.3     1  LIG1       -0.0374
     35 H          -2.0327    9.6804    0.4601 H       1  LIG1        0.0278
     36 H          -1.2249    9.3477   -1.0531 H       1  LIG1        0.0278
     37 H          -0.4100    9.0324    0.4601 H       1  LIG1        0.0278
     38 C          -4.1608    8.3391   -0.0426 C.ar    1  LIG1        0.0418
     39 C          -4.0397    9.7110   -0.0479 C.ar    1  LIG1        0.0428
     40 C          -5.3206   10.3514   -0.0572 C.ar    1  LIG1       -0.0274
     41 C          -6.3455    9.4315   -0.0576 C.ar    1  LIG1       -0.0196
     42 S          -5.7640    7.8637   -0.0478 S.2     1  LIG1       -0.0946
     43 H          -7.6151    9.7107   -0.0644 H       1  LIG1        0.0696
     44 C          -2.9175   10.3672   -0.0453 C.1     1  LIG1       -0.0682
     45 C          -1.8805   10.9735   -0.0429 C.1     1  LIG1       -0.1139
     46 H          -0.9568   11.5136   -0.0408 H       1  LIG1        0.1232
     47 C          -5.4690   11.6432   -0.0642 C.3     1  LIG1       -0.0380
     48 H          -6.3780   11.9006    0.4382 H       1  LIG1        0.0278
     49 H          -5.5092   11.9922   -1.0750 H       1  LIG1        0.0278
     50 H          -4.6421   12.1000    0.4382 H       1  LIG1        0.0278
@<TRIPOS>BOND
     1    49    47    1
     2    36    34    1
     3    12    10    1
     4    24    22    1
     5    43    41    1
     6    47    40    1
     7    47    50    1
     8    47    48    1
     9    41    40   ar
    10    41    42   ar
    11    40    39   ar
    12    39    44    1
    13    39    38   ar
    14    42    38   ar
    15    44    45    3
    16    45    46    1
    17    38    29    1
    18    34    28    1
    19    34    37    1
    20    34    35    1
    21    29    28   ar
    22    29    30   ar
    23    28    27   ar
    24    27    31    1
    25    27    26   ar
    26    30    26   ar
    27    18    17   ar
    28    18    14   ar
    29    31    32    3
    30    32    33    1
    31    26    17    1
    32    17    16   ar
    33    10     3    1
    34    10    13    1
    35    10    11    1
    36     6     1    1
    37     9     8    1
    38     8     7    3
    39     7     2    1
    40     1     2   ar
    41     1     5   ar
    42     2     3   ar
    43     3     4   ar
    44     4     5   ar
    45     4    14    1
    46    14    15   ar
    47    16    15   ar
    48    16    22    1
    49    15    19    1
    50    22    25    1
    51    22    23    1
    52    19    20    3
    53    20    21    1
