@<TRIPOS>MOLECULE
mol_data/noopt/geoms/mol2/5ei5ei-5ei-5ei-.out
 50 53 0 0 0
SMALL
GASTEIGER

@<TRIPOS>ATOM
      1 C          -2.0792   -1.7080   -0.0002 C.ar    1  LIG1       -0.0081
      2 C          -0.7020   -1.7080   -0.0002 C.ar    1  LIG1        0.0352
      3 C          -0.1766   -0.3757   -0.0002 C.ar    1  LIG1       -0.0198
      4 C          -1.1831    0.5643    0.0006 C.ar    1  LIG1        0.0312
      5 S          -2.6937   -0.1528    0.0006 S.2     1  LIG1       -0.0946
      6 H          -2.8374   -2.7640   -0.0008 H       1  LIG1        0.0706
      7 C           0.0503   -2.7682   -0.0004 C.1     1  LIG1       -0.0688
      8 C           0.7454   -3.7478   -0.0006 C.1     1  LIG1       -0.1139
      9 H           1.3646   -4.6205   -0.0007 H       1  LIG1        0.1232
     10 C           1.0972   -0.1142   -0.0009 C.3     1  LIG1       -0.0374
     11 H           1.2712    0.8133    0.5033 H       1  LIG1        0.0278
     12 H           1.4460   -0.0426   -1.0099 H       1  LIG1        0.0278
     13 H           1.6224   -0.8983    0.5033 H       1  LIG1        0.0278
     14 C          -1.0166    1.8536    0.0014 C.ar    1  LIG1        0.0424
     15 C           0.1958    2.5069    0.0015 C.ar    1  LIG1        0.0435
     16 C           0.0263    3.9290    0.0017 C.ar    1  LIG1       -0.0191
     17 C          -1.3057    4.2790    0.0026 C.ar    1  LIG1        0.0318
     18 S          -2.2953    2.9311    0.0023 S.2     1  LIG1       -0.0856
     19 C           1.3610    1.9305    0.0013 C.1     1  LIG1       -0.0682
     20 C           2.4376    1.3979    0.0010 C.1     1  LIG1       -0.1139
     21 H           3.3967    0.9234    0.0008 H       1  LIG1        0.1232
     22 C           1.0235    4.7634    0.0012 C.3     1  LIG1       -0.0374
     23 H           0.7366    5.6625    0.5055 H       1  LIG1        0.0278
     24 H           1.2967    4.9921   -1.0078 H       1  LIG1        0.0278
     25 H           1.8579    4.3223    0.5054 H       1  LIG1        0.0278
     26 C          -1.7708    5.4930    0.0035 C.ar    1  LIG1        0.0424
     27 C          -1.0136    6.6432    0.0227 C.ar    1  LIG1        0.0435
     28 C          -1.8374    7.8147    0.0172 C.ar    1  LIG1       -0.0191
     29 C          -3.1758    7.4910   -0.0051 C.ar    1  LIG1        0.0318
     30 S          -3.4074    5.8351   -0.0192 S.2     1  LIG1       -0.0856
     31 C           0.2855    6.6885    0.0432 C.1     1  LIG1       -0.0682
     32 C           1.4858    6.7303    0.0621 C.1     1  LIG1       -0.1139
     33 H           2.5550    6.7675    0.0790 H       1  LIG1        0.1232
     34 C          -1.3554    9.0223    0.0317 C.3     1  LIG1       -0.0374
     35 H          -2.0366    9.6722    0.5401 H       1  LIG1        0.0278
     36 H          -1.2191    9.3640   -0.9731 H       1  LIG1        0.0278
     37 H          -0.4138    9.0244    0.5400 H       1  LIG1        0.0278
     38 C          -4.1610    8.3391   -0.0144 C.ar    1  LIG1        0.0418
     39 C          -4.0399    9.7110   -0.0205 C.ar    1  LIG1        0.0428
     40 C          -5.3208   10.3515   -0.0311 C.ar    1  LIG1       -0.0274
     41 C          -6.3457    9.4315   -0.0316 C.ar    1  LIG1       -0.0196
     42 S          -5.7642    7.8638   -0.0205 S.2     1  LIG1       -0.0946
     43 H          -7.6153    9.7107   -0.0396 H       1  LIG1        0.0696
     44 C          -2.9176   10.3672   -0.0175 C.1     1  LIG1       -0.0682
     45 C          -1.8807   10.9735   -0.0147 C.1     1  LIG1       -0.1139
     46 H          -0.9570   11.5136   -0.0122 H       1  LIG1        0.1232
     47 C          -5.4692   11.6433   -0.0391 C.3     1  LIG1       -0.0380
     48 H          -6.3782   11.9010    0.4632 H       1  LIG1        0.0278
     49 H          -5.5093   11.9915   -1.0501 H       1  LIG1        0.0278
     50 H          -4.6423   12.1004    0.4631 H       1  LIG1        0.0278
@<TRIPOS>BOND
     1    49    47    1
     2    12    10    1
     3    24    22    1
     4    36    34    1
     5    43    41    1
     6    47    40    1
     7    47    50    1
     8    47    48    1
     9    41    40   ar
    10    41    42   ar
    11    40    39   ar
    12    39    44    1
    13    39    38   ar
    14    42    38   ar
    15    30    29   ar
    16    30    26   ar
    17    44    45    3
    18    45    46    1
    19    38    29    1
    20    29    28   ar
    21    10     3    1
    22    10    13    1
    23    10    11    1
    24     6     1    1
    25     9     8    1
    26     8     7    3
    27     7     2    1
    28     2     3   ar
    29     2     1   ar
    30     3     4   ar
    31     1     5   ar
    32     5     4   ar
    33     4    14    1
    34    21    20    1
    35    20    19    3
    36    22    16    1
    37    22    25    1
    38    22    23    1
    39    19    15    1
    40    14    15   ar
    41    14    18   ar
    42    15    16   ar
    43    16    17   ar
    44    18    17   ar
    45    17    26    1
    46    26    27   ar
    47    28    27   ar
    48    28    34    1
    49    27    31    1
    50    34    37    1
    51    34    35    1
    52    31    32    3
    53    32    33    1
