@<TRIPOS>MOLECULE
mol_data/noopt/geoms/mol2/5ei5ei.out
 26 27 0 0 0
SMALL
GASTEIGER

@<TRIPOS>ATOM
      1 C          -2.0792   -1.7080   -0.0002 C.ar    1  LIG1       -0.0081
      2 C          -0.7020   -1.7080   -0.0002 C.ar    1  LIG1        0.0352
      3 C          -0.1766   -0.3757   -0.0002 C.ar    1  LIG1       -0.0198
      4 C          -1.1831    0.5643    0.0006 C.ar    1  LIG1        0.0312
      5 S          -2.6937   -0.1528    0.0006 S.2     1  LIG1       -0.0946
      6 H          -2.8374   -2.7640   -0.0008 H       1  LIG1        0.0706
      7 C           0.0503   -2.7682   -0.0004 C.1     1  LIG1       -0.0688
      8 C           0.7454   -3.7478   -0.0006 C.1     1  LIG1       -0.1139
      9 H           1.3646   -4.6205   -0.0007 H       1  LIG1        0.1232
     10 C           1.0972   -0.1142   -0.0009 C.3     1  LIG1       -0.0374
     11 H           1.2712    0.8133    0.5033 H       1  LIG1        0.0278
     12 H           1.4460   -0.0426   -1.0099 H       1  LIG1        0.0278
     13 H           1.6224   -0.8983    0.5033 H       1  LIG1        0.0278
     14 C          -1.0166    1.8536    0.0014 C.ar    1  LIG1        0.0418
     15 C           0.1956    2.5069    0.0205 C.ar    1  LIG1        0.0428
     16 C           0.0262    3.9290    0.0147 C.ar    1  LIG1       -0.0274
     17 C          -1.3056    4.2790   -0.0075 C.ar    1  LIG1       -0.0196
     18 S          -2.2951    2.9311   -0.0215 S.2     1  LIG1       -0.0946
     19 H          -1.7706    5.4930   -0.0170 H       1  LIG1        0.0696
     20 C           1.3607    1.9305    0.0410 C.1     1  LIG1       -0.0682
     21 C           2.4372    1.3979    0.0600 C.1     1  LIG1       -0.1139
     22 H           3.3961    0.9235    0.0769 H       1  LIG1        0.1232
     23 C           1.0233    4.7634    0.0291 C.3     1  LIG1       -0.0380
     24 H           0.7319    5.6588    0.5375 H       1  LIG1        0.0278
     25 H           1.3054    4.9995   -0.9757 H       1  LIG1        0.0278
     26 H           1.8532    4.3187    0.5374 H       1  LIG1        0.0278
@<TRIPOS>BOND
     1    12    10    1
     2    25    23    1
     3    18    17   ar
     4    18    14   ar
     5    19    17    1
     6    17    16   ar
     7    10     3    1
     8    10    13    1
     9    10    11    1
    10     6     1    1
    11     9     8    1
    12     8     7    3
    13     7     2    1
    14     2     3   ar
    15     2     1   ar
    16     3     4   ar
    17     1     5   ar
    18     4     5   ar
    19     4    14    1
    20    14    15   ar
    21    16    15   ar
    22    16    23    1
    23    15    20    1
    24    23    26    1
    25    23    24    1
    26    20    21    3
    27    21    22    1
