@<TRIPOS>MOLECULE
mol_data/noopt/geoms/mol2/5ei5ei-5ei-5ei.out
 50 53 0 0 0
SMALL
GASTEIGER

@<TRIPOS>ATOM
      1 C          -2.0792   -1.7080   -0.0002 C.ar    1  LIG1       -0.0081
      2 C          -0.7020   -1.7080   -0.0002 C.ar    1  LIG1        0.0352
      3 C          -0.1766   -0.3757   -0.0002 C.ar    1  LIG1       -0.0198
      4 C          -1.1831    0.5643    0.0006 C.ar    1  LIG1        0.0312
      5 S          -2.6937   -0.1528    0.0006 S.2     1  LIG1       -0.0946
      6 H          -2.8374   -2.7640   -0.0008 H       1  LIG1        0.0706
      7 C           0.0503   -2.7682   -0.0004 C.1     1  LIG1       -0.0688
      8 C           0.7454   -3.7478   -0.0006 C.1     1  LIG1       -0.1139
      9 H           1.3646   -4.6205   -0.0007 H       1  LIG1        0.1232
     10 C           1.0972   -0.1142   -0.0009 C.3     1  LIG1       -0.0374
     11 H           1.2712    0.8133    0.5033 H       1  LIG1        0.0278
     12 H           1.4460   -0.0426   -1.0099 H       1  LIG1        0.0278
     13 H           1.6224   -0.8983    0.5033 H       1  LIG1        0.0278
     14 C          -1.0166    1.8536    0.0014 C.ar    1  LIG1        0.0424
     15 C           0.1958    2.5069    0.0015 C.ar    1  LIG1        0.0435
     16 C           0.0263    3.9290    0.0017 C.ar    1  LIG1       -0.0191
     17 C          -1.3057    4.2790    0.0026 C.ar    1  LIG1        0.0318
     18 S          -2.2953    2.9311    0.0023 S.2     1  LIG1       -0.0856
     19 C           1.3610    1.9305    0.0013 C.1     1  LIG1       -0.0682
     20 C           2.4376    1.3979    0.0010 C.1     1  LIG1       -0.1139
     21 H           3.3967    0.9234    0.0008 H       1  LIG1        0.1232
     22 C           1.0235    4.7634    0.0012 C.3     1  LIG1       -0.0374
     23 H           0.7366    5.6625    0.5055 H       1  LIG1        0.0278
     24 H           1.2967    4.9921   -1.0078 H       1  LIG1        0.0278
     25 H           1.8579    4.3223    0.5054 H       1  LIG1        0.0278
     26 C          -1.7708    5.4930    0.0035 C.ar    1  LIG1        0.0424
     27 C          -1.0136    6.6432    0.0227 C.ar    1  LIG1        0.0435
     28 C          -1.8374    7.8147    0.0172 C.ar    1  LIG1       -0.0191
     29 C          -3.1758    7.4910   -0.0051 C.ar    1  LIG1        0.0318
     30 S          -3.4074    5.8351   -0.0192 S.2     1  LIG1       -0.0856
     31 C           0.2855    6.6885    0.0432 C.1     1  LIG1       -0.0682
     32 C           1.4858    6.7303    0.0621 C.1     1  LIG1       -0.1139
     33 H           2.5550    6.7675    0.0790 H       1  LIG1        0.1232
     34 C          -1.3554    9.0223    0.0317 C.3     1  LIG1       -0.0374
     35 H          -2.0366    9.6722    0.5401 H       1  LIG1        0.0278
     36 H          -1.2191    9.3640   -0.9731 H       1  LIG1        0.0278
     37 H          -0.4138    9.0244    0.5400 H       1  LIG1        0.0278
     38 C          -4.1610    8.3391   -0.0144 C.ar    1  LIG1        0.0418
     39 C          -4.0401    9.7110   -0.0016 C.ar    1  LIG1        0.0428
     40 C          -5.3209   10.3515   -0.0181 C.ar    1  LIG1       -0.0274
     41 C          -6.3455    9.4316   -0.0417 C.ar    1  LIG1       -0.0196
     42 S          -5.7639    7.8638   -0.0443 S.2     1  LIG1       -0.0946
     43 H          -7.6151    9.7108   -0.0601 H       1  LIG1        0.0696
     44 C          -2.9181   10.3671    0.0222 C.1     1  LIG1       -0.0682
     45 C          -1.8813   10.9734    0.0443 C.1     1  LIG1       -0.1139
     46 H          -0.9578   11.5134    0.0639 H       1  LIG1        0.1232
     47 C          -5.4695   11.6433   -0.0111 C.3     1  LIG1       -0.0380
     48 H          -6.3779   11.8951    0.4952 H       1  LIG1        0.0278
     49 H          -5.5109   12.0030   -1.0181 H       1  LIG1        0.0278
     50 H          -4.6420   12.0947    0.4951 H       1  LIG1        0.0278
@<TRIPOS>BOND
     1    49    47    1
     2    12    10    1
     3    24    22    1
     4    36    34    1
     5    43    41    1
     6    42    41   ar
     7    42    38   ar
     8    41    40   ar
     9    30    29   ar
    10    30    26   ar
    11    40    47    1
    12    40    39   ar
    13    38    29    1
    14    38    39   ar
    15    47    50    1
    16    47    48    1
    17    29    28   ar
    18    39    44    1
    19    10     3    1
    20    10    13    1
    21    10    11    1
    22     6     1    1
    23     9     8    1
    24     8     7    3
    25     7     2    1
    26     2     3   ar
    27     2     1   ar
    28     3     4   ar
    29     1     5   ar
    30     4     5   ar
    31     4    14    1
    32    21    20    1
    33    20    19    3
    34    22    16    1
    35    22    25    1
    36    22    23    1
    37    19    15    1
    38    14    15   ar
    39    14    18   ar
    40    15    16   ar
    41    16    17   ar
    42    18    17   ar
    43    17    26    1
    44    26    27   ar
    45    28    27   ar
    46    28    34    1
    47    44    45    3
    48    27    31    1
    49    34    37    1
    50    34    35    1
    51    31    32    3
    52    45    46    1
    53    32    33    1
