@<TRIPOS>MOLECULE
mol_data/noopt/geoms/mol2/5ei5ei-.out
 26 27 0 0 0
SMALL
GASTEIGER

@<TRIPOS>ATOM
      1 C          -2.0792   -1.7080   -0.0002 C.ar    1  LIG1       -0.0081
      2 C          -0.7020   -1.7080   -0.0002 C.ar    1  LIG1        0.0352
      3 C          -0.1766   -0.3757   -0.0002 C.ar    1  LIG1       -0.0198
      4 C          -1.1831    0.5643    0.0006 C.ar    1  LIG1        0.0312
      5 S          -2.6937   -0.1528    0.0006 S.2     1  LIG1       -0.0946
      6 H          -2.8374   -2.7640   -0.0008 H       1  LIG1        0.0706
      7 C           0.0503   -2.7682   -0.0004 C.1     1  LIG1       -0.0688
      8 C           0.7454   -3.7478   -0.0006 C.1     1  LIG1       -0.1139
      9 H           1.3646   -4.6205   -0.0007 H       1  LIG1        0.1232
     10 C           1.0972   -0.1142   -0.0009 C.3     1  LIG1       -0.0374
     11 H           1.2712    0.8133    0.5033 H       1  LIG1        0.0278
     12 H           1.4460   -0.0426   -1.0099 H       1  LIG1        0.0278
     13 H           1.6224   -0.8983    0.5033 H       1  LIG1        0.0278
     14 C          -1.0166    1.8536    0.0014 C.ar    1  LIG1        0.0418
     15 C           0.1958    2.5069    0.0015 C.ar    1  LIG1        0.0428
     16 C           0.0263    3.9290    0.0017 C.ar    1  LIG1       -0.0274
     17 C          -1.3057    4.2790    0.0026 C.ar    1  LIG1       -0.0196
     18 S          -2.2953    2.9311    0.0023 S.2     1  LIG1       -0.0946
     19 H          -1.7708    5.4930    0.0035 H       1  LIG1        0.0696
     20 C           1.3610    1.9305    0.0013 C.1     1  LIG1       -0.0682
     21 C           2.4376    1.3979    0.0010 C.1     1  LIG1       -0.1139
     22 H           3.3967    0.9234    0.0008 H       1  LIG1        0.1232
     23 C           1.0235    4.7634    0.0012 C.3     1  LIG1       -0.0380
     24 H           0.7366    5.6625    0.5055 H       1  LIG1        0.0278
     25 H           1.2967    4.9921   -1.0078 H       1  LIG1        0.0278
     26 H           1.8579    4.3223    0.5054 H       1  LIG1        0.0278
@<TRIPOS>BOND
     1    12    10    1
     2    25    23    1
     3    10     3    1
     4    10    13    1
     5    10    11    1
     6     6     1    1
     7     9     8    1
     8     8     7    3
     9     7     2    1
    10     2     3   ar
    11     2     1   ar
    12     3     4   ar
    13     1     5   ar
    14     4     5   ar
    15     4    14    1
    16    22    21    1
    17    21    20    3
    18    23    16    1
    19    23    26    1
    20    23    24    1
    21    20    15    1
    22    14    15   ar
    23    14    18   ar
    24    15    16   ar
    25    16    17   ar
    26    18    17   ar
    27    17    19    1
