@<TRIPOS>MOLECULE
mol_data/noopt/geoms/mol2/5ei5ei5ei-.out
 38 40 0 0 0
SMALL
GASTEIGER

@<TRIPOS>ATOM
      1 C          -2.0792   -1.7080   -0.0002 C.ar    1  LIG1       -0.0081
      2 C          -0.7020   -1.7080   -0.0002 C.ar    1  LIG1        0.0352
      3 C          -0.1766   -0.3757   -0.0002 C.ar    1  LIG1       -0.0198
      4 C          -1.1831    0.5643    0.0006 C.ar    1  LIG1        0.0312
      5 S          -2.6937   -0.1528    0.0006 S.2     1  LIG1       -0.0946
      6 H          -2.8374   -2.7640   -0.0008 H       1  LIG1        0.0706
      7 C           0.0503   -2.7682   -0.0004 C.1     1  LIG1       -0.0688
      8 C           0.7454   -3.7478   -0.0006 C.1     1  LIG1       -0.1139
      9 H           1.3646   -4.6205   -0.0007 H       1  LIG1        0.1232
     10 C           1.0972   -0.1142   -0.0009 C.3     1  LIG1       -0.0374
     11 H           1.2712    0.8133    0.5033 H       1  LIG1        0.0278
     12 H           1.4460   -0.0426   -1.0099 H       1  LIG1        0.0278
     13 H           1.6224   -0.8983    0.5033 H       1  LIG1        0.0278
     14 C          -1.0166    1.8536    0.0014 C.ar    1  LIG1        0.0424
     15 C           0.1956    2.5069    0.0205 C.ar    1  LIG1        0.0435
     16 C           0.0262    3.9290    0.0147 C.ar    1  LIG1       -0.0191
     17 C          -1.3056    4.2790   -0.0075 C.ar    1  LIG1        0.0318
     18 S          -2.2951    2.9311   -0.0215 S.2     1  LIG1       -0.0856
     19 C           1.3607    1.9305    0.0410 C.1     1  LIG1       -0.0682
     20 C           2.4372    1.3979    0.0600 C.1     1  LIG1       -0.1139
     21 H           3.3961    0.9235    0.0769 H       1  LIG1        0.1232
     22 C           1.0233    4.7634    0.0291 C.3     1  LIG1       -0.0374
     23 H           0.7319    5.6588    0.5375 H       1  LIG1        0.0278
     24 H           1.3054    4.9995   -0.9757 H       1  LIG1        0.0278
     25 H           1.8532    4.3187    0.5374 H       1  LIG1        0.0278
     26 C          -1.7706    5.4930   -0.0170 C.ar    1  LIG1        0.0418
     27 C          -1.0134    6.6433   -0.0043 C.ar    1  LIG1        0.0428
     28 C          -1.8371    7.8147   -0.0210 C.ar    1  LIG1       -0.0274
     29 C          -3.1754    7.4910   -0.0446 C.ar    1  LIG1       -0.0196
     30 S          -3.4072    5.8350   -0.0470 S.2     1  LIG1       -0.0946
     31 H          -4.1606    8.3390   -0.0631 H       1  LIG1        0.0696
     32 C           0.2856    6.6886    0.0196 C.1     1  LIG1       -0.0682
     33 C           1.4859    6.7305    0.0416 C.1     1  LIG1       -0.1139
     34 H           2.5551    6.7678    0.0613 H       1  LIG1        0.1232
     35 C          -1.3550    9.0224   -0.0141 C.3     1  LIG1       -0.0380
     36 H          -2.0352    9.6750    0.4922 H       1  LIG1        0.0278
     37 H          -1.2209    9.3586   -1.0211 H       1  LIG1        0.0278
     38 H          -0.4124    9.0273    0.4921 H       1  LIG1        0.0278
@<TRIPOS>BOND
     1    37    35    1
     2    12    10    1
     3    24    22    1
     4    31    29    1
     5    30    29   ar
     6    30    26   ar
     7    29    28   ar
     8    18    17   ar
     9    18    14   ar
    10    28    35    1
    11    28    27   ar
    12    26    17    1
    13    26    27   ar
    14    35    38    1
    15    35    36    1
    16    17    16   ar
    17    27    32    1
    18    10     3    1
    19    10    13    1
    20    10    11    1
    21     6     1    1
    22     9     8    1
    23     8     7    3
    24     7     2    1
    25     1     2   ar
    26     1     5   ar
    27     3     2   ar
    28     3     4   ar
    29     5     4   ar
    30     4    14    1
    31    14    15   ar
    32    16    15   ar
    33    16    22    1
    34    32    33    3
    35    15    19    1
    36    22    25    1
    37    22    23    1
    38    19    20    3
    39    33    34    1
    40    20    21    1
