@<TRIPOS>MOLECULE
mol_data/noopt/geoms/mol2/5el.out
 15 15 0 0 0
SMALL
GASTEIGER

@<TRIPOS>ATOM
      1 C          -2.0792   -1.7080   -0.0002 C.ar    1  LIG1       -0.0053
      2 C          -0.7020   -1.7080   -0.0002 C.ar    1  LIG1        0.0732
      3 C          -0.1766   -0.3757   -0.0002 C.ar    1  LIG1        0.1424
      4 C          -1.1831    0.5643    0.0006 C.ar    1  LIG1        0.0186
      5 S          -2.6937   -0.1528    0.0006 S.2     1  LIG1       -0.1001
      6 H          -2.8374   -2.7640   -0.0008 H       1  LIG1        0.0707
      7 H          -1.0166    1.8536    0.0014 H       1  LIG1        0.0730
      8 C           0.0503   -2.7682   -0.0004 C.1     1  LIG1       -0.0655
      9 C           0.7454   -3.7478   -0.0006 C.1     1  LIG1       -0.1138
     10 H           1.3646   -4.6205   -0.0007 H       1  LIG1        0.1232
     11 O           1.0969   -0.1143   -0.0009 O.3     1  LIG1       -0.4934
     12 C           1.8355   -1.3388   -0.0012 C.3     1  LIG1        0.0789
     13 H           2.8835   -1.1232   -0.0020 H       1  LIG1        0.0660
     14 H           1.5884   -1.9046    0.8727 H       1  LIG1        0.0660
     15 H           1.5872   -1.9049   -0.8746 H       1  LIG1        0.0660
@<TRIPOS>BOND
     1    15    12    1
     2    13    12    1
     3    12    11    1
     4    12    14    1
     5    11     3    1
     6     6     1    1
     7    10     9    1
     8     9     8    3
     9     8     2    1
    10     1     2   ar
    11     1     5   ar
    12     2     3   ar
    13     3     4   ar
    14     4     5   ar
    15     4     7    1
