@<TRIPOS>MOLECULE
mol_data/noopt/geoms/mol2/5el5el-5el-5el.out
 54 57 0 0 0
SMALL
GASTEIGER

@<TRIPOS>ATOM
      1 C          -2.0792   -1.7080   -0.0002 C.ar    1  LIG1       -0.0047
      2 C          -0.7020   -1.7080   -0.0002 C.ar    1  LIG1        0.0739
      3 C          -0.1766   -0.3757   -0.0002 C.ar    1  LIG1        0.1506
      4 C          -1.1831    0.5643    0.0006 C.ar    1  LIG1        0.0700
      5 S          -2.6937   -0.1528    0.0006 S.2     1  LIG1       -0.0911
      6 H          -2.8374   -2.7640   -0.0008 H       1  LIG1        0.0707
      7 C           0.0503   -2.7682   -0.0004 C.1     1  LIG1       -0.0654
      8 C           0.7454   -3.7478   -0.0006 C.1     1  LIG1       -0.1138
      9 H           1.3646   -4.6205   -0.0007 H       1  LIG1        0.1232
     10 O           1.0969   -0.1143   -0.0009 O.3     1  LIG1       -0.4927
     11 C           1.8355   -1.3388   -0.0012 C.3     1  LIG1        0.0789
     12 H           2.8835   -1.1232   -0.0020 H       1  LIG1        0.0660
     13 H           1.5884   -1.9046    0.8727 H       1  LIG1        0.0660
     14 H           1.5872   -1.9049   -0.8746 H       1  LIG1        0.0660
     15 C          -1.0166    1.8536    0.0014 C.ar    1  LIG1        0.0491
     16 C           0.1958    2.5069    0.0015 C.ar    1  LIG1        0.0823
     17 C           0.0263    3.9290    0.0017 C.ar    1  LIG1        0.1513
     18 C          -1.3057    4.2790    0.0026 C.ar    1  LIG1        0.0706
     19 S          -2.2953    2.9311    0.0023 S.2     1  LIG1       -0.0820
     20 C           1.3610    1.9305    0.0013 C.1     1  LIG1       -0.0648
     21 C           2.4376    1.3979    0.0010 C.1     1  LIG1       -0.1138
     22 H           3.3967    0.9234    0.0008 H       1  LIG1        0.1232
     23 O           1.0233    4.7633    0.0012 O.3     1  LIG1       -0.4927
     24 C           2.2544    4.0357    0.0009 C.3     1  LIG1        0.0789
     25 H           3.0747    4.7226    0.0003 H       1  LIG1        0.0660
     26 H           2.3052    3.4203    0.8748 H       1  LIG1        0.0660
     27 H           2.3044    3.4196   -0.8725 H       1  LIG1        0.0660
     28 C          -1.7708    5.4930    0.0035 C.ar    1  LIG1        0.0491
     29 C          -1.0136    6.6432    0.0227 C.ar    1  LIG1        0.0823
     30 C          -1.8374    7.8147    0.0172 C.ar    1  LIG1        0.1513
     31 C          -3.1758    7.4910   -0.0051 C.ar    1  LIG1        0.0706
     32 S          -3.4074    5.8351   -0.0192 S.2     1  LIG1       -0.0820
     33 C           0.2855    6.6885    0.0432 C.1     1  LIG1       -0.0648
     34 C           1.4858    6.7303    0.0621 C.1     1  LIG1       -0.1138
     35 H           2.5550    6.7675    0.0790 H       1  LIG1        0.1232
     36 O          -1.3555    9.0221    0.0317 O.3     1  LIG1       -0.4927
     37 C           0.0734    8.9656    0.0369 C.3     1  LIG1        0.0789
     38 H           0.4696    9.9595    0.0487 H       1  LIG1        0.0660
     39 H           0.4064    8.4386    0.9067 H       1  LIG1        0.0660
     40 H           0.4135    8.4565   -0.8405 H       1  LIG1        0.0660
     41 C          -4.1610    8.3391   -0.0144 C.ar    1  LIG1        0.0485
     42 C          -4.0401    9.7110   -0.0016 C.ar    1  LIG1        0.0816
     43 C          -5.3209   10.3515   -0.0181 C.ar    1  LIG1        0.1430
     44 C          -6.3455    9.4316   -0.0417 C.ar    1  LIG1        0.0193
     45 S          -5.7639    7.8638   -0.0443 S.2     1  LIG1       -0.0910
     46 H          -7.6151    9.7108   -0.0601 H       1  LIG1        0.0731
     47 C          -2.9181   10.3671    0.0222 C.1     1  LIG1       -0.0648
     48 C          -1.8813   10.9734    0.0443 C.1     1  LIG1       -0.1138
     49 H          -0.9578   11.5134    0.0639 H       1  LIG1        0.1232
     50 O          -5.4695   11.6430   -0.0111 O.3     1  LIG1       -0.4933
     51 C          -4.1848   12.2711   -0.0087 C.3     1  LIG1        0.0789
     52 H          -4.3075   13.3341   -0.0031 H       1  LIG1        0.0660
     53 H          -3.6423   11.9702    0.8632 H       1  LIG1        0.0660
     54 H          -3.6433   11.9792   -0.8841 H       1  LIG1        0.0660
@<TRIPOS>BOND
     1    54    51    1
     2    14    11    1
     3    27    24    1
     4    40    37    1
     5    46    44    1
     6    45    44   ar
     7    45    41   ar
     8    44    43   ar
     9    32    31   ar
    10    32    28   ar
    11    43    50    1
    12    43    42   ar
    13    41    31    1
    14    41    42   ar
    15    50    51    1
    16    51    52    1
    17    51    53    1
    18    31    30   ar
    19    12    11    1
    20    42    47    1
    21    11    10    1
    22    11    13    1
    23    10     3    1
    24     6     1    1
    25     9     8    1
    26     8     7    3
    27     7     2    1
    28     1     2   ar
    29     1     5   ar
    30     2     3   ar
    31     3     4   ar
    32    25    24    1
    33     4     5   ar
    34     4    15    1
    35    22    21    1
    36    24    23    1
    37    24    26    1
    38    21    20    3
    39    23    17    1
    40    20    16    1
    41    15    16   ar
    42    15    19   ar
    43    16    17   ar
    44    17    18   ar
    45    19    18   ar
    46    18    28    1
    47    28    29   ar
    48    30    29   ar
    49    30    36    1
    50    47    48    3
    51    29    33    1
    52    36    37    1
    53    37    38    1
    54    37    39    1
    55    33    34    3
    56    48    49    1
    57    34    35    1
