@<TRIPOS>MOLECULE
mol_data/noopt/geoms/mol2/5el5el-.out
 28 29 0 0 0
SMALL
GASTEIGER

@<TRIPOS>ATOM
      1 C          -2.0792   -1.7080   -0.0002 C.ar    1  LIG1       -0.0047
      2 C          -0.7020   -1.7080   -0.0002 C.ar    1  LIG1        0.0739
      3 C          -0.1766   -0.3757   -0.0002 C.ar    1  LIG1        0.1506
      4 C          -1.1831    0.5643    0.0006 C.ar    1  LIG1        0.0700
      5 S          -2.6937   -0.1528    0.0006 S.2     1  LIG1       -0.0911
      6 H          -2.8374   -2.7640   -0.0008 H       1  LIG1        0.0707
      7 C           0.0503   -2.7682   -0.0004 C.1     1  LIG1       -0.0654
      8 C           0.7454   -3.7478   -0.0006 C.1     1  LIG1       -0.1138
      9 H           1.3646   -4.6205   -0.0007 H       1  LIG1        0.1232
     10 O           1.0969   -0.1143   -0.0009 O.3     1  LIG1       -0.4927
     11 C           1.8355   -1.3388   -0.0012 C.3     1  LIG1        0.0789
     12 H           2.8835   -1.1232   -0.0020 H       1  LIG1        0.0660
     13 H           1.5884   -1.9046    0.8727 H       1  LIG1        0.0660
     14 H           1.5872   -1.9049   -0.8746 H       1  LIG1        0.0660
     15 C          -1.0166    1.8536    0.0014 C.ar    1  LIG1        0.0484
     16 C           0.1958    2.5069    0.0015 C.ar    1  LIG1        0.0816
     17 C           0.0263    3.9290    0.0017 C.ar    1  LIG1        0.1430
     18 C          -1.3057    4.2790    0.0026 C.ar    1  LIG1        0.0193
     19 S          -2.2953    2.9311    0.0023 S.2     1  LIG1       -0.0910
     20 H          -1.7708    5.4930    0.0035 H       1  LIG1        0.0731
     21 C           1.3610    1.9305    0.0013 C.1     1  LIG1       -0.0648
     22 C           2.4376    1.3979    0.0010 C.1     1  LIG1       -0.1138
     23 H           3.3967    0.9234    0.0008 H       1  LIG1        0.1232
     24 O           1.0233    4.7633    0.0012 O.3     1  LIG1       -0.4933
     25 C           2.2544    4.0357    0.0009 C.3     1  LIG1        0.0789
     26 H           3.0747    4.7226    0.0003 H       1  LIG1        0.0660
     27 H           2.3052    3.4203    0.8748 H       1  LIG1        0.0660
     28 H           2.3044    3.4196   -0.8725 H       1  LIG1        0.0660
@<TRIPOS>BOND
     1    14    11    1
     2    28    25    1
     3    12    11    1
     4    11    10    1
     5    11    13    1
     6    10     3    1
     7     6     1    1
     8     9     8    1
     9     8     7    3
    10     7     2    1
    11     1     2   ar
    12     1     5   ar
    13     2     3   ar
    14     3     4   ar
    15    26    25    1
    16     5     4   ar
    17     4    15    1
    18    23    22    1
    19    25    24    1
    20    25    27    1
    21    22    21    3
    22    24    17    1
    23    21    16    1
    24    15    16   ar
    25    15    19   ar
    26    16    17   ar
    27    17    18   ar
    28    19    18   ar
    29    18    20    1
