@<TRIPOS>MOLECULE
mol_data/noopt/geoms/mol2/5el5el.out
 28 29 0 0 0
SMALL
GASTEIGER

@<TRIPOS>ATOM
      1 C          -2.0792   -1.7080   -0.0002 C.ar    1  LIG1       -0.0047
      2 C          -0.7020   -1.7080   -0.0002 C.ar    1  LIG1        0.0739
      3 C          -0.1766   -0.3757   -0.0002 C.ar    1  LIG1        0.1506
      4 C          -1.1831    0.5643    0.0006 C.ar    1  LIG1        0.0700
      5 S          -2.6937   -0.1528    0.0006 S.2     1  LIG1       -0.0911
      6 H          -2.8374   -2.7640   -0.0008 H       1  LIG1        0.0707
      7 C           0.0503   -2.7682   -0.0004 C.1     1  LIG1       -0.0654
      8 C           0.7454   -3.7478   -0.0006 C.1     1  LIG1       -0.1138
      9 H           1.3646   -4.6205   -0.0007 H       1  LIG1        0.1232
     10 O           1.0969   -0.1143   -0.0009 O.3     1  LIG1       -0.4927
     11 C           1.8355   -1.3388   -0.0012 C.3     1  LIG1        0.0789
     12 H           2.8835   -1.1232   -0.0020 H       1  LIG1        0.0660
     13 H           1.5884   -1.9046    0.8727 H       1  LIG1        0.0660
     14 H           1.5872   -1.9049   -0.8746 H       1  LIG1        0.0660
     15 C          -1.0166    1.8536    0.0014 C.ar    1  LIG1        0.0484
     16 C           0.1956    2.5069    0.0205 C.ar    1  LIG1        0.0816
     17 C           0.0262    3.9290    0.0147 C.ar    1  LIG1        0.1430
     18 C          -1.3056    4.2790   -0.0075 C.ar    1  LIG1        0.0193
     19 S          -2.2951    2.9311   -0.0215 S.2     1  LIG1       -0.0910
     20 H          -1.7706    5.4930   -0.0170 H       1  LIG1        0.0731
     21 C           1.3607    1.9305    0.0410 C.1     1  LIG1       -0.0648
     22 C           2.4372    1.3979    0.0600 C.1     1  LIG1       -0.1138
     23 H           3.3961    0.9235    0.0769 H       1  LIG1        0.1232
     24 O           1.0231    4.7633    0.0291 O.3     1  LIG1       -0.4933
     25 C           2.2542    4.0357    0.0343 C.3     1  LIG1        0.0789
     26 H           3.0745    4.7227    0.0460 H       1  LIG1        0.0660
     27 H           2.2974    3.4139    0.9041 H       1  LIG1        0.0660
     28 H           2.3120    3.4261   -0.8431 H       1  LIG1        0.0660
@<TRIPOS>BOND
     1    14    11    1
     2    28    25    1
     3    19    18   ar
     4    19    15   ar
     5    20    18    1
     6    18    17   ar
     7    12    11    1
     8    11    10    1
     9    11    13    1
    10    10     3    1
    11     6     1    1
    12     9     8    1
    13     8     7    3
    14     7     2    1
    15     1     2   ar
    16     1     5   ar
    17     3     2   ar
    18     3     4   ar
    19     5     4   ar
    20     4    15    1
    21    15    16   ar
    22    17    16   ar
    23    17    24    1
    24    16    21    1
    25    24    25    1
    26    25    26    1
    27    25    27    1
    28    21    22    3
    29    22    23    1
