@<TRIPOS>MOLECULE
mol_data/noopt/geoms/mol2/5el5el5el5el-.out
 54 57 0 0 0
SMALL
GASTEIGER

@<TRIPOS>ATOM
      1 C          -2.0792   -1.7080   -0.0002 C.ar    1  LIG1       -0.0047
      2 C          -0.7020   -1.7080   -0.0002 C.ar    1  LIG1        0.0739
      3 C          -0.1766   -0.3757   -0.0002 C.ar    1  LIG1        0.1506
      4 C          -1.1831    0.5643    0.0006 C.ar    1  LIG1        0.0700
      5 S          -2.6937   -0.1528    0.0006 S.2     1  LIG1       -0.0911
      6 H          -2.8374   -2.7640   -0.0008 H       1  LIG1        0.0707
      7 C           0.0503   -2.7682   -0.0004 C.1     1  LIG1       -0.0654
      8 C           0.7454   -3.7478   -0.0006 C.1     1  LIG1       -0.1138
      9 H           1.3646   -4.6205   -0.0007 H       1  LIG1        0.1232
     10 O           1.0969   -0.1143   -0.0009 O.3     1  LIG1       -0.4927
     11 C           1.8355   -1.3388   -0.0012 C.3     1  LIG1        0.0789
     12 H           2.8835   -1.1232   -0.0020 H       1  LIG1        0.0660
     13 H           1.5884   -1.9046    0.8727 H       1  LIG1        0.0660
     14 H           1.5872   -1.9049   -0.8746 H       1  LIG1        0.0660
     15 C          -1.0166    1.8536    0.0014 C.ar    1  LIG1        0.0491
     16 C           0.1956    2.5069    0.0205 C.ar    1  LIG1        0.0823
     17 C           0.0262    3.9290    0.0147 C.ar    1  LIG1        0.1513
     18 C          -1.3056    4.2790   -0.0075 C.ar    1  LIG1        0.0706
     19 S          -2.2951    2.9311   -0.0215 S.2     1  LIG1       -0.0820
     20 C           1.3607    1.9305    0.0410 C.1     1  LIG1       -0.0648
     21 C           2.4372    1.3979    0.0600 C.1     1  LIG1       -0.1138
     22 H           3.3961    0.9235    0.0769 H       1  LIG1        0.1232
     23 O           1.0231    4.7633    0.0291 O.3     1  LIG1       -0.4927
     24 C           2.2542    4.0357    0.0343 C.3     1  LIG1        0.0789
     25 H           3.0745    4.7227    0.0460 H       1  LIG1        0.0660
     26 H           2.2974    3.4139    0.9041 H       1  LIG1        0.0660
     27 H           2.3120    3.4261   -0.8431 H       1  LIG1        0.0660
     28 C          -1.7706    5.4930   -0.0170 C.ar    1  LIG1        0.0491
     29 C          -1.0132    6.6432   -0.0232 C.ar    1  LIG1        0.0823
     30 C          -1.8369    7.8147   -0.0340 C.ar    1  LIG1        0.1513
     31 C          -3.1756    7.4910   -0.0345 C.ar    1  LIG1        0.0706
     32 S          -3.4074    5.8350   -0.0232 S.2     1  LIG1       -0.0820
     33 C           0.2860    6.6885   -0.0202 C.1     1  LIG1       -0.0648
     34 C           1.4865    6.7303   -0.0173 C.1     1  LIG1       -0.1138
     35 H           2.5558    6.7675   -0.0148 H       1  LIG1        0.1232
     36 O          -1.3549    9.0220   -0.0421 O.3     1  LIG1       -0.4927
     37 C           0.0740    8.9654   -0.0451 C.3     1  LIG1        0.0789
     38 H           0.4703    9.9593   -0.0519 H       1  LIG1        0.0660
     39 H           0.4125    8.4525    0.8309 H       1  LIG1        0.0660
     40 H           0.4084    8.4421   -0.9164 H       1  LIG1        0.0660
     41 C          -4.1608    8.3391   -0.0426 C.ar    1  LIG1        0.0485
     42 C          -4.0397    9.7110   -0.0479 C.ar    1  LIG1        0.0816
     43 C          -5.3206   10.3514   -0.0572 C.ar    1  LIG1        0.1430
     44 C          -6.3455    9.4315   -0.0576 C.ar    1  LIG1        0.0193
     45 S          -5.7640    7.8637   -0.0478 S.2     1  LIG1       -0.0910
     46 H          -7.6151    9.7107   -0.0644 H       1  LIG1        0.0731
     47 C          -2.9175   10.3672   -0.0453 C.1     1  LIG1       -0.0648
     48 C          -1.8805   10.9735   -0.0429 C.1     1  LIG1       -0.1138
     49 H          -0.9568   11.5136   -0.0408 H       1  LIG1        0.1232
     50 O          -5.4690   11.6430   -0.0642 O.3     1  LIG1       -0.4933
     51 C          -4.1843   12.2710   -0.0669 C.3     1  LIG1        0.0789
     52 H          -4.3069   13.3339   -0.0729 H       1  LIG1        0.0660
     53 H          -3.6429   11.9794    0.8088 H       1  LIG1        0.0660
     54 H          -3.6418   11.9697   -0.9385 H       1  LIG1        0.0660
@<TRIPOS>BOND
     1    54    51    1
     2    40    37    1
     3    14    11    1
     4    27    24    1
     5    52    51    1
     6    51    50    1
     7    51    53    1
     8    46    44    1
     9    50    43    1
    10    44    43   ar
    11    44    45   ar
    12    43    42   ar
    13    38    37    1
    14    42    47    1
    15    42    41   ar
    16    45    41   ar
    17    47    48    3
    18    37    36    1
    19    37    39    1
    20    48    49    1
    21    41    31    1
    22    36    30    1
    23    31    30   ar
    24    31    32   ar
    25    30    29   ar
    26    29    33    1
    27    29    28   ar
    28    32    28   ar
    29    19    18   ar
    30    19    15   ar
    31    33    34    3
    32    34    35    1
    33    28    18    1
    34    18    17   ar
    35    12    11    1
    36    11    10    1
    37    11    13    1
    38    10     3    1
    39     6     1    1
    40     9     8    1
    41     8     7    3
    42     7     2    1
    43     1     2   ar
    44     1     5   ar
    45     2     3   ar
    46     3     4   ar
    47     5     4   ar
    48     4    15    1
    49    15    16   ar
    50    17    16   ar
    51    17    23    1
    52    16    20    1
    53    23    24    1
    54    24    25    1
    55    24    26    1
    56    20    21    3
    57    21    22    1
