@<TRIPOS>MOLECULE
mol_data/noopt/geoms/mol2/5el5el5el.out
 41 43 0 0 0
SMALL
GASTEIGER

@<TRIPOS>ATOM
      1 C          -2.0792   -1.7080   -0.0002 C.ar    1  LIG1       -0.0047
      2 C          -0.7020   -1.7080   -0.0002 C.ar    1  LIG1        0.0739
      3 C          -0.1766   -0.3757   -0.0002 C.ar    1  LIG1        0.1506
      4 C          -1.1831    0.5643    0.0006 C.ar    1  LIG1        0.0700
      5 S          -2.6937   -0.1528    0.0006 S.2     1  LIG1       -0.0911
      6 H          -2.8374   -2.7640   -0.0008 H       1  LIG1        0.0707
      7 C           0.0503   -2.7682   -0.0004 C.1     1  LIG1       -0.0654
      8 C           0.7454   -3.7478   -0.0006 C.1     1  LIG1       -0.1138
      9 H           1.3646   -4.6205   -0.0007 H       1  LIG1        0.1232
     10 O           1.0969   -0.1143   -0.0009 O.3     1  LIG1       -0.4927
     11 C           1.8355   -1.3388   -0.0012 C.3     1  LIG1        0.0789
     12 H           2.8835   -1.1232   -0.0020 H       1  LIG1        0.0660
     13 H           1.5884   -1.9046    0.8727 H       1  LIG1        0.0660
     14 H           1.5872   -1.9049   -0.8746 H       1  LIG1        0.0660
     15 C          -1.0166    1.8536    0.0014 C.ar    1  LIG1        0.0491
     16 C           0.1956    2.5069    0.0205 C.ar    1  LIG1        0.0823
     17 C           0.0262    3.9290    0.0147 C.ar    1  LIG1        0.1513
     18 C          -1.3056    4.2790   -0.0075 C.ar    1  LIG1        0.0706
     19 S          -2.2951    2.9311   -0.0215 S.2     1  LIG1       -0.0820
     20 C           1.3607    1.9305    0.0410 C.1     1  LIG1       -0.0648
     21 C           2.4372    1.3979    0.0600 C.1     1  LIG1       -0.1138
     22 H           3.3961    0.9235    0.0769 H       1  LIG1        0.1232
     23 O           1.0231    4.7633    0.0291 O.3     1  LIG1       -0.4927
     24 C           2.2542    4.0357    0.0343 C.3     1  LIG1        0.0789
     25 H           3.0745    4.7227    0.0460 H       1  LIG1        0.0660
     26 H           2.2974    3.4139    0.9041 H       1  LIG1        0.0660
     27 H           2.3120    3.4261   -0.8431 H       1  LIG1        0.0660
     28 C          -1.7706    5.4930   -0.0170 C.ar    1  LIG1        0.0485
     29 C          -1.0132    6.6432   -0.0232 C.ar    1  LIG1        0.0816
     30 C          -1.8369    7.8147   -0.0340 C.ar    1  LIG1        0.1430
     31 C          -3.1756    7.4910   -0.0345 C.ar    1  LIG1        0.0193
     32 S          -3.4074    5.8350   -0.0232 S.2     1  LIG1       -0.0910
     33 H          -4.1608    8.3391   -0.0426 H       1  LIG1        0.0731
     34 C           0.2860    6.6885   -0.0202 C.1     1  LIG1       -0.0648
     35 C           1.4865    6.7303   -0.0173 C.1     1  LIG1       -0.1138
     36 H           2.5558    6.7675   -0.0148 H       1  LIG1        0.1232
     37 O          -1.3549    9.0220   -0.0421 O.3     1  LIG1       -0.4933
     38 C           0.0740    8.9654   -0.0451 C.3     1  LIG1        0.0789
     39 H           0.4703    9.9593   -0.0519 H       1  LIG1        0.0660
     40 H           0.4125    8.4525    0.8309 H       1  LIG1        0.0660
     41 H           0.4084    8.4421   -0.9164 H       1  LIG1        0.0660
@<TRIPOS>BOND
     1    41    38    1
     2    14    11    1
     3    27    24    1
     4    39    38    1
     5    38    37    1
     6    38    40    1
     7    33    31    1
     8    37    30    1
     9    31    30   ar
    10    31    32   ar
    11    30    29   ar
    12    29    34    1
    13    29    28   ar
    14    32    28   ar
    15    19    18   ar
    16    19    15   ar
    17    34    35    3
    18    35    36    1
    19    28    18    1
    20    18    17   ar
    21    12    11    1
    22    11    10    1
    23    11    13    1
    24    10     3    1
    25     6     1    1
    26     9     8    1
    27     8     7    3
    28     7     2    1
    29     1     2   ar
    30     1     5   ar
    31     3     2   ar
    32     3     4   ar
    33     5     4   ar
    34     4    15    1
    35    15    16   ar
    36    17    16   ar
    37    17    23    1
    38    16    20    1
    39    23    24    1
    40    24    25    1
    41    24    26    1
    42    20    21    3
    43    21    22    1
