@<TRIPOS>MOLECULE
mol_data/noopt/geoms/mol2/5el5el-5el5el-.out
 54 57 0 0 0
SMALL
GASTEIGER

@<TRIPOS>ATOM
      1 C          -2.0792   -1.7080   -0.0002 C.ar    1  LIG1       -0.0047
      2 C          -0.7020   -1.7080   -0.0002 C.ar    1  LIG1        0.0739
      3 C          -0.1766   -0.3757   -0.0002 C.ar    1  LIG1        0.1506
      4 C          -1.1831    0.5643    0.0006 C.ar    1  LIG1        0.0700
      5 S          -2.6937   -0.1528    0.0006 S.2     1  LIG1       -0.0911
      6 H          -2.8374   -2.7640   -0.0008 H       1  LIG1        0.0707
      7 C           0.0503   -2.7682   -0.0004 C.1     1  LIG1       -0.0654
      8 C           0.7454   -3.7478   -0.0006 C.1     1  LIG1       -0.1138
      9 H           1.3646   -4.6205   -0.0007 H       1  LIG1        0.1232
     10 O           1.0969   -0.1143   -0.0009 O.3     1  LIG1       -0.4927
     11 C           1.8355   -1.3388   -0.0012 C.3     1  LIG1        0.0789
     12 H           2.8835   -1.1232   -0.0020 H       1  LIG1        0.0660
     13 H           1.5884   -1.9046    0.8727 H       1  LIG1        0.0660
     14 H           1.5872   -1.9049   -0.8746 H       1  LIG1        0.0660
     15 C          -1.0166    1.8536    0.0014 C.ar    1  LIG1        0.0491
     16 C           0.1958    2.5069    0.0015 C.ar    1  LIG1        0.0823
     17 C           0.0263    3.9290    0.0017 C.ar    1  LIG1        0.1513
     18 C          -1.3057    4.2790    0.0026 C.ar    1  LIG1        0.0706
     19 S          -2.2953    2.9311    0.0023 S.2     1  LIG1       -0.0820
     20 C           1.3610    1.9305    0.0013 C.1     1  LIG1       -0.0648
     21 C           2.4376    1.3979    0.0010 C.1     1  LIG1       -0.1138
     22 H           3.3967    0.9234    0.0008 H       1  LIG1        0.1232
     23 O           1.0233    4.7633    0.0012 O.3     1  LIG1       -0.4927
     24 C           2.2544    4.0357    0.0009 C.3     1  LIG1        0.0789
     25 H           3.0747    4.7226    0.0003 H       1  LIG1        0.0660
     26 H           2.3052    3.4203    0.8748 H       1  LIG1        0.0660
     27 H           2.3044    3.4196   -0.8725 H       1  LIG1        0.0660
     28 C          -1.7708    5.4930    0.0035 C.ar    1  LIG1        0.0491
     29 C          -1.0134    6.6433    0.0038 C.ar    1  LIG1        0.0823
     30 C          -1.8373    7.8147    0.0042 C.ar    1  LIG1        0.1513
     31 C          -3.1759    7.4910    0.0050 C.ar    1  LIG1        0.0706
     32 S          -3.4076    5.8350    0.0046 S.2     1  LIG1       -0.0820
     33 C           0.2858    6.6886    0.0035 C.1     1  LIG1       -0.0648
     34 C           1.4863    6.7305    0.0032 C.1     1  LIG1       -0.1138
     35 H           2.5556    6.7678    0.0029 H       1  LIG1        0.1232
     36 O          -1.3553    9.0221    0.0038 O.3     1  LIG1       -0.4927
     37 C           0.0736    8.9657    0.0035 C.3     1  LIG1        0.0789
     38 H           0.4699    9.9596    0.0030 H       1  LIG1        0.0660
     39 H           0.4102    8.4479    0.8774 H       1  LIG1        0.0660
     40 H           0.4099    8.4472   -0.8699 H       1  LIG1        0.0660
     41 C          -4.1612    8.3391    0.0062 C.ar    1  LIG1        0.0485
     42 C          -4.0401    9.7109    0.0065 C.ar    1  LIG1        0.0816
     43 C          -5.3211   10.3514    0.0071 C.ar    1  LIG1        0.1430
     44 C          -6.3459    9.4314    0.0079 C.ar    1  LIG1        0.0193
     45 S          -5.7643    7.8636    0.0073 S.2     1  LIG1       -0.0910
     46 H          -7.6156    9.7105    0.0092 H       1  LIG1        0.0731
     47 C          -2.9179   10.3672    0.0061 C.1     1  LIG1       -0.0648
     48 C          -1.8810   10.9735    0.0058 C.1     1  LIG1       -0.1138
     49 H          -0.9573   11.5137    0.0055 H       1  LIG1        0.1232
     50 O          -5.4696   11.6429    0.0067 O.3     1  LIG1       -0.4933
     51 C          -4.1849   12.2710    0.0066 C.3     1  LIG1        0.0789
     52 H          -4.3076   13.3340    0.0061 H       1  LIG1        0.0660
     53 H          -3.6430   11.9749    0.8804 H       1  LIG1        0.0660
     54 H          -3.6429   11.9742   -0.8669 H       1  LIG1        0.0660
@<TRIPOS>BOND
     1    14    11    1
     2    27    24    1
     3    40    37    1
     4    54    51    1
     5    12    11    1
     6    11    10    1
     7    11    13    1
     8    10     3    1
     9     6     1    1
    10     9     8    1
    11     8     7    3
    12     7     2    1
    13     1     2   ar
    14     1     5   ar
    15     2     3   ar
    16     3     4   ar
    17    25    24    1
    18     5     4   ar
    19     4    15    1
    20    22    21    1
    21    24    23    1
    22    24    26    1
    23    21    20    3
    24    23    17    1
    25    20    16    1
    26    15    16   ar
    27    15    19   ar
    28    16    17   ar
    29    17    18   ar
    30    19    18   ar
    31    18    28    1
    32    35    34    1
    33    38    37    1
    34    34    33    3
    35    33    29    1
    36    37    36    1
    37    37    39    1
    38    28    29   ar
    39    28    32   ar
    40    36    30    1
    41    29    30   ar
    42    30    31   ar
    43    32    31   ar
    44    31    41    1
    45    49    48    1
    46    48    47    3
    47    47    42    1
    48    52    51    1
    49    41    42   ar
    50    41    45   ar
    51    42    43   ar
    52    51    50    1
    53    51    53    1
    54    50    43    1
    55    43    44   ar
    56    45    44   ar
    57    44    46    1
