@<TRIPOS>MOLECULE
mol_data/noopt/geoms/mol2/5el5el-5el.out
 41 43 0 0 0
SMALL
GASTEIGER

@<TRIPOS>ATOM
      1 C          -2.0792   -1.7080   -0.0002 C.ar    1  LIG1       -0.0047
      2 C          -0.7020   -1.7080   -0.0002 C.ar    1  LIG1        0.0739
      3 C          -0.1766   -0.3757   -0.0002 C.ar    1  LIG1        0.1506
      4 C          -1.1831    0.5643    0.0006 C.ar    1  LIG1        0.0700
      5 S          -2.6937   -0.1528    0.0006 S.2     1  LIG1       -0.0911
      6 H          -2.8374   -2.7640   -0.0008 H       1  LIG1        0.0707
      7 C           0.0503   -2.7682   -0.0004 C.1     1  LIG1       -0.0654
      8 C           0.7454   -3.7478   -0.0006 C.1     1  LIG1       -0.1138
      9 H           1.3646   -4.6205   -0.0007 H       1  LIG1        0.1232
     10 O           1.0969   -0.1143   -0.0009 O.3     1  LIG1       -0.4927
     11 C           1.8355   -1.3388   -0.0012 C.3     1  LIG1        0.0789
     12 H           2.8835   -1.1232   -0.0020 H       1  LIG1        0.0660
     13 H           1.5884   -1.9046    0.8727 H       1  LIG1        0.0660
     14 H           1.5872   -1.9049   -0.8746 H       1  LIG1        0.0660
     15 C          -1.0166    1.8536    0.0014 C.ar    1  LIG1        0.0491
     16 C           0.1958    2.5069    0.0015 C.ar    1  LIG1        0.0823
     17 C           0.0263    3.9290    0.0017 C.ar    1  LIG1        0.1513
     18 C          -1.3057    4.2790    0.0026 C.ar    1  LIG1        0.0706
     19 S          -2.2953    2.9311    0.0023 S.2     1  LIG1       -0.0820
     20 C           1.3610    1.9305    0.0013 C.1     1  LIG1       -0.0648
     21 C           2.4376    1.3979    0.0010 C.1     1  LIG1       -0.1138
     22 H           3.3967    0.9234    0.0008 H       1  LIG1        0.1232
     23 O           1.0233    4.7633    0.0012 O.3     1  LIG1       -0.4927
     24 C           2.2544    4.0357    0.0009 C.3     1  LIG1        0.0789
     25 H           3.0747    4.7226    0.0003 H       1  LIG1        0.0660
     26 H           2.3052    3.4203    0.8748 H       1  LIG1        0.0660
     27 H           2.3044    3.4196   -0.8725 H       1  LIG1        0.0660
     28 C          -1.7708    5.4930    0.0035 C.ar    1  LIG1        0.0485
     29 C          -1.0134    6.6433    0.0038 C.ar    1  LIG1        0.0816
     30 C          -1.8373    7.8147    0.0042 C.ar    1  LIG1        0.1430
     31 C          -3.1759    7.4910    0.0050 C.ar    1  LIG1        0.0193
     32 S          -3.4076    5.8350    0.0046 S.2     1  LIG1       -0.0910
     33 H          -4.1612    8.3391    0.0062 H       1  LIG1        0.0731
     34 C           0.2858    6.6886    0.0035 C.1     1  LIG1       -0.0648
     35 C           1.4863    6.7305    0.0032 C.1     1  LIG1       -0.1138
     36 H           2.5556    6.7678    0.0029 H       1  LIG1        0.1232
     37 O          -1.3553    9.0221    0.0038 O.3     1  LIG1       -0.4933
     38 C           0.0736    8.9657    0.0035 C.3     1  LIG1        0.0789
     39 H           0.4699    9.9596    0.0030 H       1  LIG1        0.0660
     40 H           0.4102    8.4479    0.8774 H       1  LIG1        0.0660
     41 H           0.4099    8.4472   -0.8699 H       1  LIG1        0.0660
@<TRIPOS>BOND
     1    14    11    1
     2    27    24    1
     3    41    38    1
     4    12    11    1
     5    11    10    1
     6    11    13    1
     7    10     3    1
     8     6     1    1
     9     9     8    1
    10     8     7    3
    11     7     2    1
    12     1     2   ar
    13     1     5   ar
    14     3     2   ar
    15     3     4   ar
    16    25    24    1
    17     4     5   ar
    18     4    15    1
    19    22    21    1
    20    24    23    1
    21    24    26    1
    22    21    20    3
    23    23    17    1
    24    20    16    1
    25    15    16   ar
    26    15    19   ar
    27    16    17   ar
    28    17    18   ar
    29    19    18   ar
    30    18    28    1
    31    36    35    1
    32    39    38    1
    33    35    34    3
    34    34    29    1
    35    38    37    1
    36    38    40    1
    37    28    29   ar
    38    28    32   ar
    39    37    30    1
    40    29    30   ar
    41    30    31   ar
    42    32    31   ar
    43    31    33    1
