@<TRIPOS>MOLECULE
mol_data/noopt/geoms/mol2/5el5el5el-5el-.out
 54 57 0 0 0
SMALL
GASTEIGER

@<TRIPOS>ATOM
      1 C          -2.0792   -1.7080   -0.0002 C.ar    1  LIG1       -0.0047
      2 C          -0.7020   -1.7080   -0.0002 C.ar    1  LIG1        0.0739
      3 C          -0.1766   -0.3757   -0.0002 C.ar    1  LIG1        0.1506
      4 C          -1.1831    0.5643    0.0006 C.ar    1  LIG1        0.0700
      5 S          -2.6937   -0.1528    0.0006 S.2     1  LIG1       -0.0911
      6 H          -2.8374   -2.7640   -0.0008 H       1  LIG1        0.0707
      7 C           0.0503   -2.7682   -0.0004 C.1     1  LIG1       -0.0654
      8 C           0.7454   -3.7478   -0.0006 C.1     1  LIG1       -0.1138
      9 H           1.3646   -4.6205   -0.0007 H       1  LIG1        0.1232
     10 O           1.0969   -0.1143   -0.0009 O.3     1  LIG1       -0.4927
     11 C           1.8355   -1.3388   -0.0012 C.3     1  LIG1        0.0789
     12 H           2.8835   -1.1232   -0.0020 H       1  LIG1        0.0660
     13 H           1.5884   -1.9046    0.8727 H       1  LIG1        0.0660
     14 H           1.5872   -1.9049   -0.8746 H       1  LIG1        0.0660
     15 C          -1.0166    1.8536    0.0014 C.ar    1  LIG1        0.0491
     16 C           0.1956    2.5069    0.0205 C.ar    1  LIG1        0.0823
     17 C           0.0262    3.9290    0.0147 C.ar    1  LIG1        0.1513
     18 C          -1.3056    4.2790   -0.0075 C.ar    1  LIG1        0.0706
     19 S          -2.2951    2.9311   -0.0215 S.2     1  LIG1       -0.0820
     20 C           1.3607    1.9305    0.0410 C.1     1  LIG1       -0.0648
     21 C           2.4372    1.3979    0.0600 C.1     1  LIG1       -0.1138
     22 H           3.3961    0.9235    0.0769 H       1  LIG1        0.1232
     23 O           1.0231    4.7633    0.0291 O.3     1  LIG1       -0.4927
     24 C           2.2542    4.0357    0.0343 C.3     1  LIG1        0.0789
     25 H           3.0745    4.7227    0.0460 H       1  LIG1        0.0660
     26 H           2.2974    3.4139    0.9041 H       1  LIG1        0.0660
     27 H           2.3120    3.4261   -0.8431 H       1  LIG1        0.0660
     28 C          -1.7706    5.4930   -0.0170 C.ar    1  LIG1        0.0491
     29 C          -1.0134    6.6433   -0.0043 C.ar    1  LIG1        0.0823
     30 C          -1.8371    7.8147   -0.0210 C.ar    1  LIG1        0.1513
     31 C          -3.1754    7.4910   -0.0446 C.ar    1  LIG1        0.0706
     32 S          -3.4072    5.8350   -0.0470 S.2     1  LIG1       -0.0820
     33 C           0.2856    6.6886    0.0196 C.1     1  LIG1       -0.0648
     34 C           1.4859    6.7305    0.0416 C.1     1  LIG1       -0.1138
     35 H           2.5551    6.7678    0.0613 H       1  LIG1        0.1232
     36 O          -1.3551    9.0221   -0.0141 O.3     1  LIG1       -0.4927
     37 C           0.0737    8.9657   -0.0117 C.3     1  LIG1        0.0789
     38 H           0.4700    9.9596   -0.0062 H       1  LIG1        0.0660
     39 H           0.4086    8.4435    0.8602 H       1  LIG1        0.0660
     40 H           0.4119    8.4518   -0.8871 H       1  LIG1        0.0660
     41 C          -4.1606    8.3390   -0.0631 C.ar    1  LIG1        0.0485
     42 C          -4.0394    9.7108   -0.0749 C.ar    1  LIG1        0.0816
     43 C          -5.3202   10.3513   -0.0953 C.ar    1  LIG1        0.1430
     44 C          -6.3451    9.4313   -0.0971 C.ar    1  LIG1        0.0193
     45 S          -5.7637    7.8636   -0.0756 S.2     1  LIG1       -0.0910
     46 H          -7.6146    9.7105   -0.1131 H       1  LIG1        0.0731
     47 C          -2.9172   10.3670   -0.0689 C.1     1  LIG1       -0.0648
     48 C          -1.8802   10.9733   -0.0634 C.1     1  LIG1       -0.1138
     49 H          -0.9565   11.5134   -0.0584 H       1  LIG1        0.1232
     50 O          -5.4685   11.6428   -0.1101 O.3     1  LIG1       -0.4933
     51 C          -4.1837   12.2707   -0.1155 C.3     1  LIG1        0.0789
     52 H          -4.3062   13.3336   -0.1278 H       1  LIG1        0.0660
     53 H          -3.6429   11.9841    0.7622 H       1  LIG1        0.0660
     54 H          -3.6406   11.9642   -0.9850 H       1  LIG1        0.0660
@<TRIPOS>BOND
     1    54    51    1
     2    40    37    1
     3    14    11    1
     4    27    24    1
     5    52    51    1
     6    51    50    1
     7    51    53    1
     8    46    44    1
     9    50    43    1
    10    44    43   ar
    11    44    45   ar
    12    43    42   ar
    13    45    41   ar
    14    42    47    1
    15    42    41   ar
    16    47    48    3
    17    48    49    1
    18    41    31    1
    19    32    31   ar
    20    32    28   ar
    21    31    30   ar
    22    19    18   ar
    23    19    15   ar
    24    30    36    1
    25    30    29   ar
    26    28    18    1
    27    28    29   ar
    28    36    37    1
    29    37    38    1
    30    37    39    1
    31    18    17   ar
    32    29    33    1
    33    12    11    1
    34    11    10    1
    35    11    13    1
    36    10     3    1
    37     6     1    1
    38     9     8    1
    39     8     7    3
    40     7     2    1
    41     2     3   ar
    42     2     1   ar
    43     3     4   ar
    44     1     5   ar
    45     4     5   ar
    46     4    15    1
    47    15    16   ar
    48    17    16   ar
    49    17    23    1
    50    33    34    3
    51    16    20    1
    52    23    24    1
    53    24    25    1
    54    24    26    1
    55    20    21    3
    56    34    35    1
    57    21    22    1
