@<TRIPOS>MOLECULE
mol_data/noopt/geoms/mol2/5fa5fa-5fa-.out
 26 28 0 0 0
SMALL
GASTEIGER

@<TRIPOS>ATOM
      1 C          -2.0792   -1.7080   -0.0002 C.ar    1  LIG1        0.0178
      2 C          -0.7020   -1.7080   -0.0002 C.ar    1  LIG1        0.1245
      3 C          -0.1766   -0.3757   -0.0002 C.ar    1  LIG1       -0.0047
      4 C          -1.1831    0.5643    0.0006 C.ar    1  LIG1        0.0330
      5 S          -2.6937   -0.1528    0.0006 S.2     1  LIG1       -0.0923
      6 H          -2.8374   -2.7640   -0.0008 H       1  LIG1        0.0730
      7 O           0.0503   -2.7682   -0.0004 O.3     1  LIG1       -0.5062
      8 H           0.9738   -2.5059   -0.0004 H       1  LIG1        0.2922
      9 H           1.0969   -0.1143   -0.0009 H       1  LIG1        0.0666
     10 C          -1.0166    1.8536    0.0014 C.ar    1  LIG1        0.0679
     11 C           0.1958    2.5069    0.0015 C.ar    1  LIG1        0.1327
     12 C           0.0263    3.9290    0.0017 C.ar    1  LIG1       -0.0041
     13 C          -1.3057    4.2790    0.0026 C.ar    1  LIG1        0.0336
     14 S          -2.2953    2.9311    0.0023 S.2     1  LIG1       -0.0833
     15 O           1.3610    1.9305    0.0013 O.3     1  LIG1       -0.5056
     16 H           2.0495    2.5995    0.0012 H       1  LIG1        0.2922
     17 H           1.0233    4.7632    0.0012 H       1  LIG1        0.0666
     18 C          -1.7708    5.4930    0.0035 C.ar    1  LIG1        0.0674
     19 C          -1.0136    6.6432    0.0227 C.ar    1  LIG1        0.1321
     20 C          -1.8374    7.8147    0.0172 C.ar    1  LIG1       -0.0125
     21 C          -3.1758    7.4910   -0.0051 C.ar    1  LIG1       -0.0202
     22 S          -3.4074    5.8351   -0.0192 S.2     1  LIG1       -0.0924
     23 H          -4.1610    8.3391   -0.0144 H       1  LIG1        0.0695
     24 O           0.2855    6.6885    0.0432 O.3     1  LIG1       -0.5056
     25 H           0.5742    7.6040    0.0482 H       1  LIG1        0.2922
     26 H          -1.3555    9.0220    0.0317 H       1  LIG1        0.0659
@<TRIPOS>BOND
     1    22    21   ar
     2    22    18   ar
     3    23    21    1
     4    21    20   ar
     5     9     3    1
     6     6     1    1
     7     8     7    1
     8     7     2    1
     9     2     3   ar
    10     2     1   ar
    11     3     4   ar
    12     1     5   ar
    13     4     5   ar
    14     4    10    1
    15    17    12    1
    16    16    15    1
    17    15    11    1
    18    10    11   ar
    19    10    14   ar
    20    11    12   ar
    21    12    13   ar
    22    14    13   ar
    23    13    18    1
    24    18    19   ar
    25    20    19   ar
    26    20    26    1
    27    19    24    1
    28    24    25    1
