@<TRIPOS>MOLECULE
mol_data/noopt/geoms/mol2/5fa5fa5fa-5fa-.out
 34 37 0 0 0
SMALL
GASTEIGER

@<TRIPOS>ATOM
      1 C          -2.0792   -1.7080   -0.0002 C.ar    1  LIG1        0.0178
      2 C          -0.7020   -1.7080   -0.0002 C.ar    1  LIG1        0.1245
      3 C          -0.1766   -0.3757   -0.0002 C.ar    1  LIG1       -0.0047
      4 C          -1.1831    0.5643    0.0006 C.ar    1  LIG1        0.0330
      5 S          -2.6937   -0.1528    0.0006 S.2     1  LIG1       -0.0923
      6 H          -2.8374   -2.7640   -0.0008 H       1  LIG1        0.0730
      7 O           0.0503   -2.7682   -0.0004 O.3     1  LIG1       -0.5062
      8 H           0.9738   -2.5059   -0.0004 H       1  LIG1        0.2922
      9 H           1.0969   -0.1143   -0.0009 H       1  LIG1        0.0666
     10 C          -1.0166    1.8536    0.0014 C.ar    1  LIG1        0.0679
     11 C           0.1956    2.5069    0.0205 C.ar    1  LIG1        0.1327
     12 C           0.0262    3.9290    0.0147 C.ar    1  LIG1       -0.0041
     13 C          -1.3056    4.2790   -0.0075 C.ar    1  LIG1        0.0336
     14 S          -2.2951    2.9311   -0.0215 S.2     1  LIG1       -0.0833
     15 O           1.3607    1.9305    0.0410 O.3     1  LIG1       -0.5056
     16 H           2.0491    2.5995    0.0461 H       1  LIG1        0.2922
     17 H           1.0231    4.7632    0.0291 H       1  LIG1        0.0666
     18 C          -1.7706    5.4930   -0.0170 C.ar    1  LIG1        0.0680
     19 C          -1.0134    6.6433   -0.0043 C.ar    1  LIG1        0.1327
     20 C          -1.8371    7.8147   -0.0210 C.ar    1  LIG1       -0.0041
     21 C          -3.1754    7.4910   -0.0446 C.ar    1  LIG1        0.0336
     22 S          -3.4072    5.8350   -0.0470 S.2     1  LIG1       -0.0833
     23 O           0.2857    6.6886    0.0196 O.3     1  LIG1       -0.5056
     24 H           0.5743    7.6042    0.0255 H       1  LIG1        0.2922
     25 H          -1.3552    9.0221   -0.0141 H       1  LIG1        0.0666
     26 C          -4.1606    8.3390   -0.0631 C.ar    1  LIG1        0.0674
     27 C          -4.0394    9.7108   -0.0749 C.ar    1  LIG1        0.1321
     28 C          -5.3202   10.3513   -0.0953 C.ar    1  LIG1       -0.0125
     29 C          -6.3451    9.4313   -0.0971 C.ar    1  LIG1       -0.0202
     30 S          -5.7637    7.8636   -0.0756 S.2     1  LIG1       -0.0924
     31 H          -7.6146    9.7105   -0.1131 H       1  LIG1        0.0695
     32 O          -2.9171   10.3670   -0.0689 O.3     1  LIG1       -0.5056
     33 H          -3.0973   11.3100   -0.0674 H       1  LIG1        0.2922
     34 H          -5.4685   11.6427   -0.1100 H       1  LIG1        0.0659
@<TRIPOS>BOND
     1    31    29    1
     2    34    28    1
     3    29    28   ar
     4    29    30   ar
     5    28    27   ar
     6    30    26   ar
     7    27    32    1
     8    27    26   ar
     9    32    33    1
    10    26    21    1
    11    22    21   ar
    12    22    18   ar
    13    21    20   ar
    14    14    13   ar
    15    14    10   ar
    16    20    25    1
    17    20    19   ar
    18    18    13    1
    19    18    19   ar
    20    13    12   ar
    21    19    23    1
    22     9     3    1
    23     6     1    1
    24     8     7    1
    25     7     2    1
    26     2     3   ar
    27     2     1   ar
    28     3     4   ar
    29     1     5   ar
    30     5     4   ar
    31     4    10    1
    32    10    11   ar
    33    12    11   ar
    34    12    17    1
    35    23    24    1
    36    11    15    1
    37    15    16    1
