@<TRIPOS>MOLECULE
mol_data/noopt/geoms/mol2/5fa5fa-5fa-5fa.out
 34 37 0 0 0
SMALL
GASTEIGER

@<TRIPOS>ATOM
      1 C          -2.0792   -1.7080   -0.0002 C.ar    1  LIG1        0.0178
      2 C          -0.7020   -1.7080   -0.0002 C.ar    1  LIG1        0.1245
      3 C          -0.1766   -0.3757   -0.0002 C.ar    1  LIG1       -0.0047
      4 C          -1.1831    0.5643    0.0006 C.ar    1  LIG1        0.0330
      5 S          -2.6937   -0.1528    0.0006 S.2     1  LIG1       -0.0923
      6 H          -2.8374   -2.7640   -0.0008 H       1  LIG1        0.0730
      7 O           0.0503   -2.7682   -0.0004 O.3     1  LIG1       -0.5062
      8 H           0.9738   -2.5059   -0.0004 H       1  LIG1        0.2922
      9 H           1.0969   -0.1143   -0.0009 H       1  LIG1        0.0666
     10 C          -1.0166    1.8536    0.0014 C.ar    1  LIG1        0.0679
     11 C           0.1958    2.5069    0.0015 C.ar    1  LIG1        0.1327
     12 C           0.0263    3.9290    0.0017 C.ar    1  LIG1       -0.0041
     13 C          -1.3057    4.2790    0.0026 C.ar    1  LIG1        0.0336
     14 S          -2.2953    2.9311    0.0023 S.2     1  LIG1       -0.0833
     15 O           1.3610    1.9305    0.0013 O.3     1  LIG1       -0.5056
     16 H           2.0495    2.5995    0.0012 H       1  LIG1        0.2922
     17 H           1.0233    4.7632    0.0012 H       1  LIG1        0.0666
     18 C          -1.7708    5.4930    0.0035 C.ar    1  LIG1        0.0680
     19 C          -1.0136    6.6432    0.0227 C.ar    1  LIG1        0.1327
     20 C          -1.8374    7.8147    0.0172 C.ar    1  LIG1       -0.0041
     21 C          -3.1758    7.4910   -0.0051 C.ar    1  LIG1        0.0336
     22 S          -3.4074    5.8351   -0.0192 S.2     1  LIG1       -0.0833
     23 O           0.2855    6.6885    0.0432 O.3     1  LIG1       -0.5056
     24 H           0.5742    7.6040    0.0482 H       1  LIG1        0.2922
     25 H          -1.3555    9.0220    0.0317 H       1  LIG1        0.0666
     26 C          -4.1610    8.3391   -0.0144 C.ar    1  LIG1        0.0674
     27 C          -4.0401    9.7110   -0.0016 C.ar    1  LIG1        0.1321
     28 C          -5.3209   10.3515   -0.0181 C.ar    1  LIG1       -0.0125
     29 C          -6.3455    9.4316   -0.0417 C.ar    1  LIG1       -0.0202
     30 S          -5.7639    7.8638   -0.0443 S.2     1  LIG1       -0.0924
     31 H          -7.6151    9.7108   -0.0601 H       1  LIG1        0.0695
     32 O          -2.9180   10.3671    0.0222 O.3     1  LIG1       -0.5056
     33 H          -3.0983   11.3100    0.0281 H       1  LIG1        0.2922
     34 H          -5.4695   11.6429   -0.0111 H       1  LIG1        0.0659
@<TRIPOS>BOND
     1    31    29    1
     2    30    29   ar
     3    30    26   ar
     4    29    28   ar
     5    22    21   ar
     6    22    18   ar
     7    28    34    1
     8    28    27   ar
     9    26    21    1
    10    26    27   ar
    11    21    20   ar
    12    27    32    1
    13     9     3    1
    14     6     1    1
    15     8     7    1
    16     7     2    1
    17     1     2   ar
    18     1     5   ar
    19     2     3   ar
    20     3     4   ar
    21     4     5   ar
    22     4    10    1
    23    17    12    1
    24    16    15    1
    25    15    11    1
    26    10    11   ar
    27    10    14   ar
    28    11    12   ar
    29    12    13   ar
    30    14    13   ar
    31    13    18    1
    32    18    19   ar
    33    20    19   ar
    34    20    25    1
    35    32    33    1
    36    19    23    1
    37    23    24    1
