@<TRIPOS>MOLECULE
mol_data/noopt/geoms/mol2/5fa5fa-.out
 18 19 0 0 0
SMALL
GASTEIGER

@<TRIPOS>ATOM
      1 C          -2.0792   -1.7080   -0.0002 C.ar    1  LIG1        0.0178
      2 C          -0.7020   -1.7080   -0.0002 C.ar    1  LIG1        0.1245
      3 C          -0.1766   -0.3757   -0.0002 C.ar    1  LIG1       -0.0047
      4 C          -1.1831    0.5643    0.0006 C.ar    1  LIG1        0.0330
      5 S          -2.6937   -0.1528    0.0006 S.2     1  LIG1       -0.0923
      6 H          -2.8374   -2.7640   -0.0008 H       1  LIG1        0.0730
      7 O           0.0503   -2.7682   -0.0004 O.3     1  LIG1       -0.5062
      8 H           0.9738   -2.5059   -0.0004 H       1  LIG1        0.2922
      9 H           1.0969   -0.1143   -0.0009 H       1  LIG1        0.0666
     10 C          -1.0166    1.8536    0.0014 C.ar    1  LIG1        0.0674
     11 C           0.1958    2.5069    0.0015 C.ar    1  LIG1        0.1321
     12 C           0.0263    3.9290    0.0017 C.ar    1  LIG1       -0.0125
     13 C          -1.3057    4.2790    0.0026 C.ar    1  LIG1       -0.0202
     14 S          -2.2953    2.9311    0.0023 S.2     1  LIG1       -0.0924
     15 H          -1.7708    5.4930    0.0035 H       1  LIG1        0.0695
     16 O           1.3610    1.9305    0.0013 O.3     1  LIG1       -0.5056
     17 H           2.0495    2.5995    0.0012 H       1  LIG1        0.2922
     18 H           1.0233    4.7632    0.0012 H       1  LIG1        0.0659
@<TRIPOS>BOND
     1     9     3    1
     2     6     1    1
     3     8     7    1
     4     7     2    1
     5     2     3   ar
     6     2     1   ar
     7     3     4   ar
     8     1     5   ar
     9     4     5   ar
    10     4    10    1
    11    18    12    1
    12    17    16    1
    13    16    11    1
    14    10    11   ar
    15    10    14   ar
    16    11    12   ar
    17    12    13   ar
    18    14    13   ar
    19    13    15    1
