@<TRIPOS>MOLECULE
mol_data/noopt/geoms/mol2/5fd5fd-5fd5fd.out
 38 41 0 0 0
SMALL
GASTEIGER

@<TRIPOS>ATOM
      1 C          -2.0792   -1.7080   -0.0002 C.ar    1  LIG1        0.0191
      2 C          -0.7020   -1.7080   -0.0002 C.ar    1  LIG1        0.1418
      3 C          -0.1766   -0.3757   -0.0002 C.ar    1  LIG1        0.1084
      4 C          -1.1831    0.5643    0.0006 C.ar    1  LIG1        0.0505
      5 S          -2.6937   -0.1528    0.0006 S.2     1  LIG1       -0.0910
      6 H          -2.8374   -2.7640   -0.0008 H       1  LIG1        0.0731
      7 O           0.0503   -2.7682   -0.0004 O.3     1  LIG1       -0.5049
      8 H           0.9738   -2.5059   -0.0004 H       1  LIG1        0.2922
      9 N           2.2200    0.1162   -0.0015 N.1     1  LIG1       -0.1907
     10 C           1.0969   -0.1143   -0.0009 C.1     1  LIG1        0.1040
     11 C          -1.0166    1.8536    0.0014 C.ar    1  LIG1        0.0705
     12 C           0.1958    2.5069    0.0015 C.ar    1  LIG1        0.1501
     13 C           0.0263    3.9290    0.0017 C.ar    1  LIG1        0.1090
     14 C          -1.3057    4.2790    0.0026 C.ar    1  LIG1        0.0511
     15 S          -2.2953    2.9311    0.0023 S.2     1  LIG1       -0.0820
     16 O           1.3610    1.9305    0.0013 O.3     1  LIG1       -0.5043
     17 H           2.0495    2.5995    0.0012 H       1  LIG1        0.2922
     18 N           1.9027    5.4990    0.0007 N.1     1  LIG1       -0.1907
     19 C           1.0233    4.7632    0.0012 C.1     1  LIG1        0.1040
     20 C          -1.7708    5.4930    0.0035 C.ar    1  LIG1        0.0705
     21 C          -1.0134    6.6433    0.0038 C.ar    1  LIG1        0.1501
     22 C          -1.8373    7.8147    0.0042 C.ar    1  LIG1        0.1090
     23 C          -3.1759    7.4910    0.0050 C.ar    1  LIG1        0.0511
     24 S          -3.4076    5.8350    0.0046 S.2     1  LIG1       -0.0820
     25 O           0.2858    6.6886    0.0035 O.3     1  LIG1       -0.5043
     26 H           0.5745    7.6042    0.0034 H       1  LIG1        0.2922
     27 N          -0.9302   10.0870    0.0034 N.1     1  LIG1       -0.1907
     28 C          -1.3553    9.0221    0.0038 C.1     1  LIG1        0.1040
     29 C          -4.1612    8.3391    0.0062 C.ar    1  LIG1        0.0699
     30 C          -4.0402    9.7108    0.0254 C.ar    1  LIG1        0.1494
     31 C          -5.3212   10.3513    0.0201 C.ar    1  LIG1        0.1007
     32 C          -6.3459    9.4314   -0.0022 C.ar    1  LIG1       -0.0027
     33 S          -5.7642    7.8638   -0.0165 S.2     1  LIG1       -0.0910
     34 H          -7.6155    9.7107   -0.0114 H       1  LIG1        0.0708
     35 O          -2.9181   10.3669    0.0458 O.3     1  LIG1       -0.5043
     36 H          -3.0983   11.3098    0.0509 H       1  LIG1        0.2922
     37 N          -5.6007   12.7817    0.0476 N.1     1  LIG1       -0.1907
     38 C          -5.4697   11.6427    0.0347 C.1     1  LIG1        0.1034
@<TRIPOS>BOND
     1    33    32   ar
     2    33    29   ar
     3    34    32    1
     4    32    31   ar
     5     9    10    3
     6    10     3    1
     7     6     1    1
     8     8     7    1
     9     7     2    1
    10     2     3   ar
    11     2     1   ar
    12     3     4   ar
    13     1     5   ar
    14     4     5   ar
    15     4    11    1
    16    18    19    3
    17    19    13    1
    18    17    16    1
    19    16    12    1
    20    11    12   ar
    21    11    15   ar
    22    12    13   ar
    23    13    14   ar
    24    15    14   ar
    25    14    20    1
    26    26    25    1
    27    27    28    3
    28    25    21    1
    29    20    21   ar
    30    20    24   ar
    31    28    22    1
    32    21    22   ar
    33    22    23   ar
    34    24    23   ar
    35    23    29    1
    36    29    30   ar
    37    31    30   ar
    38    31    38    1
    39    30    35    1
    40    38    37    3
    41    35    36    1
