@<TRIPOS>MOLECULE
mol_data/noopt/geoms/mol2/5fd5fd5fd5fd-.out
 38 41 0 0 0
SMALL
GASTEIGER

@<TRIPOS>ATOM
      1 C          -2.0792   -1.7080   -0.0002 C.ar    1  LIG1        0.0191
      2 C          -0.7020   -1.7080   -0.0002 C.ar    1  LIG1        0.1418
      3 C          -0.1766   -0.3757   -0.0002 C.ar    1  LIG1        0.1084
      4 C          -1.1831    0.5643    0.0006 C.ar    1  LIG1        0.0505
      5 S          -2.6937   -0.1528    0.0006 S.2     1  LIG1       -0.0910
      6 H          -2.8374   -2.7640   -0.0008 H       1  LIG1        0.0731
      7 O           0.0503   -2.7682   -0.0004 O.3     1  LIG1       -0.5049
      8 H           0.9738   -2.5059   -0.0004 H       1  LIG1        0.2922
      9 N           2.2200    0.1162   -0.0015 N.1     1  LIG1       -0.1907
     10 C           1.0969   -0.1143   -0.0009 C.1     1  LIG1        0.1040
     11 C          -1.0166    1.8536    0.0014 C.ar    1  LIG1        0.0705
     12 C           0.1956    2.5069    0.0205 C.ar    1  LIG1        0.1501
     13 C           0.0262    3.9290    0.0147 C.ar    1  LIG1        0.1090
     14 C          -1.3056    4.2790   -0.0075 C.ar    1  LIG1        0.0511
     15 S          -2.2951    2.9311   -0.0215 S.2     1  LIG1       -0.0820
     16 O           1.3607    1.9305    0.0410 O.3     1  LIG1       -0.5043
     17 H           2.0491    2.5995    0.0461 H       1  LIG1        0.2922
     18 N           1.9024    5.4990    0.0418 N.1     1  LIG1       -0.1907
     19 C           1.0231    4.7632    0.0291 C.1     1  LIG1        0.1040
     20 C          -1.7706    5.4930   -0.0170 C.ar    1  LIG1        0.0705
     21 C          -1.0132    6.6432   -0.0232 C.ar    1  LIG1        0.1501
     22 C          -1.8369    7.8147   -0.0340 C.ar    1  LIG1        0.1090
     23 C          -3.1756    7.4910   -0.0345 C.ar    1  LIG1        0.0511
     24 S          -3.4074    5.8350   -0.0232 S.2     1  LIG1       -0.0820
     25 O           0.2861    6.6885   -0.0202 O.3     1  LIG1       -0.5043
     26 H           0.5748    7.6040   -0.0194 H       1  LIG1        0.2922
     27 N          -0.9297   10.0868   -0.0492 N.1     1  LIG1       -0.1907
     28 C          -1.3549    9.0220   -0.0421 C.1     1  LIG1        0.1040
     29 C          -4.1608    8.3391   -0.0426 C.ar    1  LIG1        0.0699
     30 C          -4.0397    9.7110   -0.0479 C.ar    1  LIG1        0.1494
     31 C          -5.3206   10.3514   -0.0572 C.ar    1  LIG1        0.1007
     32 C          -6.3455    9.4315   -0.0576 C.ar    1  LIG1       -0.0027
     33 S          -5.7640    7.8637   -0.0478 S.2     1  LIG1       -0.0910
     34 H          -7.6151    9.7107   -0.0644 H       1  LIG1        0.0708
     35 O          -2.9174   10.3672   -0.0453 O.3     1  LIG1       -0.5043
     36 H          -3.0976   11.3101   -0.0447 H       1  LIG1        0.2922
     37 N          -5.5999   12.7820   -0.0705 N.1     1  LIG1       -0.1907
     38 C          -5.4690   11.6429   -0.0642 C.1     1  LIG1        0.1034
@<TRIPOS>BOND
     1    37    38    3
     2    34    32    1
     3    38    31    1
     4    32    31   ar
     5    32    33   ar
     6    31    30   ar
     7    27    28    3
     8    30    35    1
     9    30    29   ar
    10    33    29   ar
    11    35    36    1
    12    29    23    1
    13    28    22    1
    14    23    22   ar
    15    23    24   ar
    16    22    21   ar
    17    21    25    1
    18    21    20   ar
    19    24    20   ar
    20    15    14   ar
    21    15    11   ar
    22    25    26    1
    23    20    14    1
    24    14    13   ar
    25     9    10    3
    26    10     3    1
    27     6     1    1
    28     8     7    1
    29     7     2    1
    30     2     1   ar
    31     2     3   ar
    32     1     5   ar
    33     3     4   ar
    34     5     4   ar
    35     4    11    1
    36    11    12   ar
    37    13    12   ar
    38    13    19    1
    39    12    16    1
    40    19    18    3
    41    16    17    1
