@<TRIPOS>MOLECULE
mol_data/noopt/geoms/mol2/5fd5fd5fd-5fd.out
 38 41 0 0 0
SMALL
GASTEIGER

@<TRIPOS>ATOM
      1 C          -2.0792   -1.7080   -0.0002 C.ar    1  LIG1        0.0191
      2 C          -0.7020   -1.7080   -0.0002 C.ar    1  LIG1        0.1418
      3 C          -0.1766   -0.3757   -0.0002 C.ar    1  LIG1        0.1084
      4 C          -1.1831    0.5643    0.0006 C.ar    1  LIG1        0.0505
      5 S          -2.6937   -0.1528    0.0006 S.2     1  LIG1       -0.0910
      6 H          -2.8374   -2.7640   -0.0008 H       1  LIG1        0.0731
      7 O           0.0503   -2.7682   -0.0004 O.3     1  LIG1       -0.5049
      8 H           0.9738   -2.5059   -0.0004 H       1  LIG1        0.2922
      9 N           2.2200    0.1162   -0.0015 N.1     1  LIG1       -0.1907
     10 C           1.0969   -0.1143   -0.0009 C.1     1  LIG1        0.1040
     11 C          -1.0166    1.8536    0.0014 C.ar    1  LIG1        0.0705
     12 C           0.1956    2.5069    0.0205 C.ar    1  LIG1        0.1501
     13 C           0.0262    3.9290    0.0147 C.ar    1  LIG1        0.1090
     14 C          -1.3056    4.2790   -0.0075 C.ar    1  LIG1        0.0511
     15 S          -2.2951    2.9311   -0.0215 S.2     1  LIG1       -0.0820
     16 O           1.3607    1.9305    0.0410 O.3     1  LIG1       -0.5043
     17 H           2.0491    2.5995    0.0461 H       1  LIG1        0.2922
     18 N           1.9024    5.4990    0.0418 N.1     1  LIG1       -0.1907
     19 C           1.0231    4.7632    0.0291 C.1     1  LIG1        0.1040
     20 C          -1.7706    5.4930   -0.0170 C.ar    1  LIG1        0.0705
     21 C          -1.0134    6.6433   -0.0043 C.ar    1  LIG1        0.1501
     22 C          -1.8371    7.8147   -0.0210 C.ar    1  LIG1        0.1090
     23 C          -3.1754    7.4910   -0.0446 C.ar    1  LIG1        0.0511
     24 S          -3.4072    5.8350   -0.0470 S.2     1  LIG1       -0.0820
     25 O           0.2857    6.6886    0.0196 O.3     1  LIG1       -0.5043
     26 H           0.5743    7.6042    0.0255 H       1  LIG1        0.2922
     27 N          -0.9301   10.0870   -0.0081 N.1     1  LIG1       -0.1907
     28 C          -1.3552    9.0221   -0.0141 C.1     1  LIG1        0.1040
     29 C          -4.1606    8.3390   -0.0631 C.ar    1  LIG1        0.0699
     30 C          -4.0397    9.7109   -0.0560 C.ar    1  LIG1        0.1494
     31 C          -5.3204   10.3513   -0.0823 C.ar    1  LIG1        0.1007
     32 C          -6.3449    9.4313   -0.1072 C.ar    1  LIG1       -0.0027
     33 S          -5.7633    7.8636   -0.0994 S.2     1  LIG1       -0.0910
     34 H          -7.6143    9.7105   -0.1337 H       1  LIG1        0.0708
     35 O          -2.9178   10.3672   -0.0292 O.3     1  LIG1       -0.5043
     36 H          -3.0982   11.3100   -0.0226 H       1  LIG1        0.2922
     37 N          -5.5999   12.7819   -0.0819 N.1     1  LIG1       -0.1907
     38 C          -5.4689   11.6428   -0.0821 C.1     1  LIG1        0.1034
@<TRIPOS>BOND
     1    34    32    1
     2    32    33   ar
     3    32    31   ar
     4    33    29   ar
     5    31    38    1
     6    31    30   ar
     7    38    37    3
     8    29    30   ar
     9    29    23    1
    10    30    35    1
    11    24    23   ar
    12    24    20   ar
    13    23    22   ar
    14    35    36    1
    15    15    14   ar
    16    15    11   ar
    17    22    28    1
    18    22    21   ar
    19    20    14    1
    20    20    21   ar
    21    28    27    3
    22    14    13   ar
    23    21    25    1
    24     9    10    3
    25    10     3    1
    26     6     1    1
    27     8     7    1
    28     7     2    1
    29     2     3   ar
    30     2     1   ar
    31     3     4   ar
    32     1     5   ar
    33     5     4   ar
    34     4    11    1
    35    11    12   ar
    36    13    12   ar
    37    13    19    1
    38    25    26    1
    39    12    16    1
    40    19    18    3
    41    16    17    1
