@<TRIPOS>MOLECULE
mol_data/noopt/geoms/mol2/5fd5fd.out
 20 21 0 0 0
SMALL
GASTEIGER

@<TRIPOS>ATOM
      1 C          -2.0792   -1.7080   -0.0002 C.ar    1  LIG1        0.0191
      2 C          -0.7020   -1.7080   -0.0002 C.ar    1  LIG1        0.1418
      3 C          -0.1766   -0.3757   -0.0002 C.ar    1  LIG1        0.1084
      4 C          -1.1831    0.5643    0.0006 C.ar    1  LIG1        0.0504
      5 S          -2.6937   -0.1528    0.0006 S.2     1  LIG1       -0.0910
      6 H          -2.8374   -2.7640   -0.0008 H       1  LIG1        0.0731
      7 O           0.0503   -2.7682   -0.0004 O.3     1  LIG1       -0.5049
      8 H           0.9738   -2.5059   -0.0004 H       1  LIG1        0.2922
      9 N           2.2200    0.1162   -0.0015 N.1     1  LIG1       -0.1907
     10 C           1.0969   -0.1143   -0.0009 C.1     1  LIG1        0.1040
     11 C          -1.0166    1.8536    0.0014 C.ar    1  LIG1        0.0699
     12 C           0.1956    2.5069    0.0205 C.ar    1  LIG1        0.1494
     13 C           0.0262    3.9290    0.0147 C.ar    1  LIG1        0.1007
     14 C          -1.3056    4.2790   -0.0075 C.ar    1  LIG1       -0.0027
     15 S          -2.2951    2.9311   -0.0215 S.2     1  LIG1       -0.0911
     16 H          -1.7706    5.4930   -0.0170 H       1  LIG1        0.0708
     17 O           1.3607    1.9305    0.0410 O.3     1  LIG1       -0.5043
     18 H           2.0491    2.5995    0.0461 H       1  LIG1        0.2922
     19 N           1.9024    5.4990    0.0418 N.1     1  LIG1       -0.1907
     20 C           1.0231    4.7632    0.0291 C.1     1  LIG1        0.1034
@<TRIPOS>BOND
     1    15    14   ar
     2    15    11   ar
     3    16    14    1
     4    14    13   ar
     5     9    10    3
     6    10     3    1
     7     6     1    1
     8     8     7    1
     9     7     2    1
    10     2     3   ar
    11     2     1   ar
    12     3     4   ar
    13     1     5   ar
    14     4     5   ar
    15     4    11    1
    16    11    12   ar
    17    13    12   ar
    18    13    20    1
    19    12    17    1
    20    20    19    3
    21    17    18    1
