@<TRIPOS>MOLECULE
mol_data/noopt/geoms/mol2/5fd5fd-5fd5fd-.out
 38 41 0 0 0
SMALL
GASTEIGER

@<TRIPOS>ATOM
      1 C          -2.0792   -1.7080   -0.0002 C.ar    1  LIG1        0.0191
      2 C          -0.7020   -1.7080   -0.0002 C.ar    1  LIG1        0.1418
      3 C          -0.1766   -0.3757   -0.0002 C.ar    1  LIG1        0.1084
      4 C          -1.1831    0.5643    0.0006 C.ar    1  LIG1        0.0505
      5 S          -2.6937   -0.1528    0.0006 S.2     1  LIG1       -0.0910
      6 H          -2.8374   -2.7640   -0.0008 H       1  LIG1        0.0731
      7 O           0.0503   -2.7682   -0.0004 O.3     1  LIG1       -0.5049
      8 H           0.9738   -2.5059   -0.0004 H       1  LIG1        0.2922
      9 N           2.2200    0.1162   -0.0015 N.1     1  LIG1       -0.1907
     10 C           1.0969   -0.1143   -0.0009 C.1     1  LIG1        0.1040
     11 C          -1.0166    1.8536    0.0014 C.ar    1  LIG1        0.0705
     12 C           0.1958    2.5069    0.0015 C.ar    1  LIG1        0.1501
     13 C           0.0263    3.9290    0.0017 C.ar    1  LIG1        0.1090
     14 C          -1.3057    4.2790    0.0026 C.ar    1  LIG1        0.0511
     15 S          -2.2953    2.9311    0.0023 S.2     1  LIG1       -0.0820
     16 O           1.3610    1.9305    0.0013 O.3     1  LIG1       -0.5043
     17 H           2.0495    2.5995    0.0012 H       1  LIG1        0.2922
     18 N           1.9027    5.4990    0.0007 N.1     1  LIG1       -0.1907
     19 C           1.0233    4.7632    0.0012 C.1     1  LIG1        0.1040
     20 C          -1.7708    5.4930    0.0035 C.ar    1  LIG1        0.0705
     21 C          -1.0134    6.6433    0.0038 C.ar    1  LIG1        0.1501
     22 C          -1.8373    7.8147    0.0042 C.ar    1  LIG1        0.1090
     23 C          -3.1759    7.4910    0.0050 C.ar    1  LIG1        0.0511
     24 S          -3.4076    5.8350    0.0046 S.2     1  LIG1       -0.0820
     25 O           0.2858    6.6886    0.0035 O.3     1  LIG1       -0.5043
     26 H           0.5745    7.6042    0.0034 H       1  LIG1        0.2922
     27 N          -0.9302   10.0870    0.0034 N.1     1  LIG1       -0.1907
     28 C          -1.3553    9.0221    0.0038 C.1     1  LIG1        0.1040
     29 C          -4.1612    8.3391    0.0062 C.ar    1  LIG1        0.0699
     30 C          -4.0401    9.7109    0.0065 C.ar    1  LIG1        0.1494
     31 C          -5.3211   10.3514    0.0071 C.ar    1  LIG1        0.1007
     32 C          -6.3459    9.4314    0.0079 C.ar    1  LIG1       -0.0027
     33 S          -5.7643    7.8636    0.0073 S.2     1  LIG1       -0.0910
     34 H          -7.6156    9.7105    0.0092 H       1  LIG1        0.0708
     35 O          -2.9179   10.3672    0.0061 O.3     1  LIG1       -0.5043
     36 H          -3.0981   11.3101    0.0060 H       1  LIG1        0.2922
     37 N          -5.6006   12.7820    0.0065 N.1     1  LIG1       -0.1907
     38 C          -5.4696   11.6429    0.0067 C.1     1  LIG1        0.1034
@<TRIPOS>BOND
     1     9    10    3
     2    10     3    1
     3     6     1    1
     4     8     7    1
     5     7     2    1
     6     2     3   ar
     7     2     1   ar
     8     3     4   ar
     9     1     5   ar
    10     4     5   ar
    11     4    11    1
    12    18    19    3
    13    19    13    1
    14    17    16    1
    15    16    12    1
    16    11    12   ar
    17    11    15   ar
    18    12    13   ar
    19    13    14   ar
    20    15    14   ar
    21    14    20    1
    22    26    25    1
    23    27    28    3
    24    25    21    1
    25    20    21   ar
    26    20    24   ar
    27    28    22    1
    28    21    22   ar
    29    22    23   ar
    30    24    23   ar
    31    23    29    1
    32    36    35    1
    33    35    30    1
    34    29    30   ar
    35    29    33   ar
    36    37    38    3
    37    30    31   ar
    38    38    31    1
    39    31    32   ar
    40    33    32   ar
    41    32    34    1
