@<TRIPOS>MOLECULE
mol_data/noopt/geoms/mol2/5fd5fd-5fd-5fd.out
 38 41 0 0 0
SMALL
GASTEIGER

@<TRIPOS>ATOM
      1 C          -2.0792   -1.7080   -0.0002 C.ar    1  LIG1        0.0191
      2 C          -0.7020   -1.7080   -0.0002 C.ar    1  LIG1        0.1418
      3 C          -0.1766   -0.3757   -0.0002 C.ar    1  LIG1        0.1084
      4 C          -1.1831    0.5643    0.0006 C.ar    1  LIG1        0.0505
      5 S          -2.6937   -0.1528    0.0006 S.2     1  LIG1       -0.0910
      6 H          -2.8374   -2.7640   -0.0008 H       1  LIG1        0.0731
      7 O           0.0503   -2.7682   -0.0004 O.3     1  LIG1       -0.5049
      8 H           0.9738   -2.5059   -0.0004 H       1  LIG1        0.2922
      9 N           2.2200    0.1162   -0.0015 N.1     1  LIG1       -0.1907
     10 C           1.0969   -0.1143   -0.0009 C.1     1  LIG1        0.1040
     11 C          -1.0166    1.8536    0.0014 C.ar    1  LIG1        0.0705
     12 C           0.1958    2.5069    0.0015 C.ar    1  LIG1        0.1501
     13 C           0.0263    3.9290    0.0017 C.ar    1  LIG1        0.1090
     14 C          -1.3057    4.2790    0.0026 C.ar    1  LIG1        0.0511
     15 S          -2.2953    2.9311    0.0023 S.2     1  LIG1       -0.0820
     16 O           1.3610    1.9305    0.0013 O.3     1  LIG1       -0.5043
     17 H           2.0495    2.5995    0.0012 H       1  LIG1        0.2922
     18 N           1.9027    5.4990    0.0007 N.1     1  LIG1       -0.1907
     19 C           1.0233    4.7632    0.0012 C.1     1  LIG1        0.1040
     20 C          -1.7708    5.4930    0.0035 C.ar    1  LIG1        0.0705
     21 C          -1.0136    6.6432    0.0227 C.ar    1  LIG1        0.1501
     22 C          -1.8374    7.8147    0.0172 C.ar    1  LIG1        0.1090
     23 C          -3.1758    7.4910   -0.0051 C.ar    1  LIG1        0.0511
     24 S          -3.4074    5.8351   -0.0192 S.2     1  LIG1       -0.0820
     25 O           0.2855    6.6885    0.0432 O.3     1  LIG1       -0.5043
     26 H           0.5742    7.6040    0.0482 H       1  LIG1        0.2922
     27 N          -0.9305   10.0869    0.0445 N.1     1  LIG1       -0.1907
     28 C          -1.3555    9.0220    0.0317 C.1     1  LIG1        0.1040
     29 C          -4.1610    8.3391   -0.0144 C.ar    1  LIG1        0.0699
     30 C          -4.0401    9.7110   -0.0016 C.ar    1  LIG1        0.1494
     31 C          -5.3209   10.3515   -0.0181 C.ar    1  LIG1        0.1007
     32 C          -6.3455    9.4316   -0.0417 C.ar    1  LIG1       -0.0027
     33 S          -5.7639    7.8638   -0.0443 S.2     1  LIG1       -0.0910
     34 H          -7.6151    9.7108   -0.0601 H       1  LIG1        0.0708
     35 O          -2.9180   10.3671    0.0222 O.3     1  LIG1       -0.5043
     36 H          -3.0983   11.3100    0.0281 H       1  LIG1        0.2922
     37 N          -5.6005   12.7820   -0.0050 N.1     1  LIG1       -0.1907
     38 C          -5.4695   11.6429   -0.0111 C.1     1  LIG1        0.1034
@<TRIPOS>BOND
     1    34    32    1
     2    33    32   ar
     3    33    29   ar
     4    32    31   ar
     5    24    23   ar
     6    24    20   ar
     7    31    38    1
     8    31    30   ar
     9    29    23    1
    10    29    30   ar
    11    38    37    3
    12    23    22   ar
    13    30    35    1
    14     9    10    3
    15    10     3    1
    16     6     1    1
    17     8     7    1
    18     7     2    1
    19     1     2   ar
    20     1     5   ar
    21     2     3   ar
    22     3     4   ar
    23     4     5   ar
    24     4    11    1
    25    18    19    3
    26    19    13    1
    27    17    16    1
    28    16    12    1
    29    11    12   ar
    30    11    15   ar
    31    12    13   ar
    32    13    14   ar
    33    15    14   ar
    34    14    20    1
    35    20    21   ar
    36    22    21   ar
    37    22    28    1
    38    35    36    1
    39    21    25    1
    40    28    27    3
    41    25    26    1
