@<TRIPOS>MOLECULE
mol_data/noopt/geoms/mol2/5fd5fd-5fd-.out
 29 31 0 0 0
SMALL
GASTEIGER

@<TRIPOS>ATOM
      1 C          -2.0792   -1.7080   -0.0002 C.ar    1  LIG1        0.0191
      2 C          -0.7020   -1.7080   -0.0002 C.ar    1  LIG1        0.1418
      3 C          -0.1766   -0.3757   -0.0002 C.ar    1  LIG1        0.1084
      4 C          -1.1831    0.5643    0.0006 C.ar    1  LIG1        0.0505
      5 S          -2.6937   -0.1528    0.0006 S.2     1  LIG1       -0.0910
      6 H          -2.8374   -2.7640   -0.0008 H       1  LIG1        0.0731
      7 O           0.0503   -2.7682   -0.0004 O.3     1  LIG1       -0.5049
      8 H           0.9738   -2.5059   -0.0004 H       1  LIG1        0.2922
      9 N           2.2200    0.1162   -0.0015 N.1     1  LIG1       -0.1907
     10 C           1.0969   -0.1143   -0.0009 C.1     1  LIG1        0.1040
     11 C          -1.0166    1.8536    0.0014 C.ar    1  LIG1        0.0705
     12 C           0.1958    2.5069    0.0015 C.ar    1  LIG1        0.1501
     13 C           0.0263    3.9290    0.0017 C.ar    1  LIG1        0.1090
     14 C          -1.3057    4.2790    0.0026 C.ar    1  LIG1        0.0511
     15 S          -2.2953    2.9311    0.0023 S.2     1  LIG1       -0.0820
     16 O           1.3610    1.9305    0.0013 O.3     1  LIG1       -0.5043
     17 H           2.0495    2.5995    0.0012 H       1  LIG1        0.2922
     18 N           1.9027    5.4990    0.0007 N.1     1  LIG1       -0.1907
     19 C           1.0233    4.7632    0.0012 C.1     1  LIG1        0.1040
     20 C          -1.7708    5.4930    0.0035 C.ar    1  LIG1        0.0699
     21 C          -1.0136    6.6432    0.0227 C.ar    1  LIG1        0.1494
     22 C          -1.8374    7.8147    0.0172 C.ar    1  LIG1        0.1007
     23 C          -3.1758    7.4910   -0.0051 C.ar    1  LIG1       -0.0027
     24 S          -3.4074    5.8351   -0.0192 S.2     1  LIG1       -0.0910
     25 H          -4.1610    8.3391   -0.0144 H       1  LIG1        0.0708
     26 O           0.2855    6.6885    0.0432 O.3     1  LIG1       -0.5043
     27 H           0.5742    7.6040    0.0482 H       1  LIG1        0.2922
     28 N          -0.9305   10.0869    0.0445 N.1     1  LIG1       -0.1907
     29 C          -1.3555    9.0220    0.0317 C.1     1  LIG1        0.1034
@<TRIPOS>BOND
     1    24    23   ar
     2    24    20   ar
     3    25    23    1
     4    23    22   ar
     5     9    10    3
     6    10     3    1
     7     6     1    1
     8     8     7    1
     9     7     2    1
    10     2     3   ar
    11     2     1   ar
    12     3     4   ar
    13     1     5   ar
    14     4     5   ar
    15     4    11    1
    16    18    19    3
    17    19    13    1
    18    17    16    1
    19    16    12    1
    20    11    12   ar
    21    11    15   ar
    22    12    13   ar
    23    13    14   ar
    24    15    14   ar
    25    14    20    1
    26    20    21   ar
    27    22    21   ar
    28    22    29    1
    29    21    26    1
    30    29    28    3
    31    26    27    1
