@<TRIPOS>MOLECULE
mol_data/noopt/geoms/mol2/5fd5fd5fd.out
 29 31 0 0 0
SMALL
GASTEIGER

@<TRIPOS>ATOM
      1 C          -2.0792   -1.7080   -0.0002 C.ar    1  LIG1        0.0191
      2 C          -0.7020   -1.7080   -0.0002 C.ar    1  LIG1        0.1418
      3 C          -0.1766   -0.3757   -0.0002 C.ar    1  LIG1        0.1084
      4 C          -1.1831    0.5643    0.0006 C.ar    1  LIG1        0.0505
      5 S          -2.6937   -0.1528    0.0006 S.2     1  LIG1       -0.0910
      6 H          -2.8374   -2.7640   -0.0008 H       1  LIG1        0.0731
      7 O           0.0503   -2.7682   -0.0004 O.3     1  LIG1       -0.5049
      8 H           0.9738   -2.5059   -0.0004 H       1  LIG1        0.2922
      9 N           2.2200    0.1162   -0.0015 N.1     1  LIG1       -0.1907
     10 C           1.0969   -0.1143   -0.0009 C.1     1  LIG1        0.1040
     11 C          -1.0166    1.8536    0.0014 C.ar    1  LIG1        0.0705
     12 C           0.1956    2.5069    0.0205 C.ar    1  LIG1        0.1501
     13 C           0.0262    3.9290    0.0147 C.ar    1  LIG1        0.1090
     14 C          -1.3056    4.2790   -0.0075 C.ar    1  LIG1        0.0511
     15 S          -2.2951    2.9311   -0.0215 S.2     1  LIG1       -0.0820
     16 O           1.3607    1.9305    0.0410 O.3     1  LIG1       -0.5043
     17 H           2.0491    2.5995    0.0461 H       1  LIG1        0.2922
     18 N           1.9024    5.4990    0.0418 N.1     1  LIG1       -0.1907
     19 C           1.0231    4.7632    0.0291 C.1     1  LIG1        0.1040
     20 C          -1.7706    5.4930   -0.0170 C.ar    1  LIG1        0.0699
     21 C          -1.0132    6.6432   -0.0232 C.ar    1  LIG1        0.1494
     22 C          -1.8369    7.8147   -0.0340 C.ar    1  LIG1        0.1007
     23 C          -3.1756    7.4910   -0.0345 C.ar    1  LIG1       -0.0027
     24 S          -3.4074    5.8350   -0.0232 S.2     1  LIG1       -0.0910
     25 H          -4.1608    8.3391   -0.0426 H       1  LIG1        0.0708
     26 O           0.2861    6.6885   -0.0202 O.3     1  LIG1       -0.5043
     27 H           0.5748    7.6040   -0.0194 H       1  LIG1        0.2922
     28 N          -0.9297   10.0868   -0.0492 N.1     1  LIG1       -0.1907
     29 C          -1.3549    9.0220   -0.0421 C.1     1  LIG1        0.1034
@<TRIPOS>BOND
     1    28    29    3
     2    25    23    1
     3    29    22    1
     4    23    22   ar
     5    23    24   ar
     6    22    21   ar
     7    21    26    1
     8    21    20   ar
     9    24    20   ar
    10    15    14   ar
    11    15    11   ar
    12    26    27    1
    13    20    14    1
    14    14    13   ar
    15     9    10    3
    16    10     3    1
    17     6     1    1
    18     8     7    1
    19     7     2    1
    20     2     3   ar
    21     2     1   ar
    22     3     4   ar
    23     1     5   ar
    24     5     4   ar
    25     4    11    1
    26    11    12   ar
    27    13    12   ar
    28    13    19    1
    29    12    16    1
    30    19    18    3
    31    16    17    1
