@<TRIPOS>MOLECULE
mol_data/noopt/geoms/mol2/5fe5fe-5fe-5fe-.out
 42 45 0 0 0
SMALL
GASTEIGER

@<TRIPOS>ATOM
      1 C          -2.0792   -1.7080   -0.0002 C.ar    1  LIG1        0.0190
      2 C          -0.7020   -1.7080   -0.0002 C.ar    1  LIG1        0.1398
      3 C          -0.1766   -0.3757   -0.0002 C.ar    1  LIG1        0.0814
      4 C          -1.1831    0.5643    0.0006 C.ar    1  LIG1        0.0484
      5 S          -2.6937   -0.1528    0.0006 S.2     1  LIG1       -0.0910
      6 H          -2.8374   -2.7640   -0.0008 H       1  LIG1        0.0731
      7 O           0.0503   -2.7682   -0.0004 O.3     1  LIG1       -0.5050
      8 H           0.9738   -2.5059   -0.0004 H       1  LIG1        0.2922
      9 C           1.0969   -0.1143   -0.0009 C.1     1  LIG1       -0.0648
     10 C           2.2735    0.1272   -0.0015 C.1     1  LIG1       -0.1138
     11 H           3.3217    0.3424   -0.0021 H       1  LIG1        0.1232
     12 C          -1.0166    1.8536    0.0014 C.ar    1  LIG1        0.0704
     13 C           0.1958    2.5069    0.0015 C.ar    1  LIG1        0.1481
     14 C           0.0263    3.9290    0.0017 C.ar    1  LIG1        0.0820
     15 C          -1.3057    4.2790    0.0026 C.ar    1  LIG1        0.0491
     16 S          -2.2953    2.9311    0.0023 S.2     1  LIG1       -0.0820
     17 O           1.3610    1.9305    0.0013 O.3     1  LIG1       -0.5044
     18 H           2.0495    2.5995    0.0012 H       1  LIG1        0.2922
     19 C           1.0233    4.7632    0.0012 C.1     1  LIG1       -0.0648
     20 C           1.9446    5.5340    0.0007 C.1     1  LIG1       -0.1138
     21 H           2.7652    6.2207    0.0002 H       1  LIG1        0.1232
     22 C          -1.7708    5.4930    0.0035 C.ar    1  LIG1        0.0704
     23 C          -1.0136    6.6432    0.0227 C.ar    1  LIG1        0.1481
     24 C          -1.8374    7.8147    0.0172 C.ar    1  LIG1        0.0820
     25 C          -3.1758    7.4910   -0.0051 C.ar    1  LIG1        0.0490
     26 S          -3.4074    5.8351   -0.0192 S.2     1  LIG1       -0.0820
     27 O           0.2855    6.6885    0.0432 O.3     1  LIG1       -0.5044
     28 H           0.5742    7.6040    0.0482 H       1  LIG1        0.2922
     29 C          -1.3555    9.0220    0.0317 C.1     1  LIG1       -0.0648
     30 C          -0.9102   10.1376    0.0451 C.1     1  LIG1       -0.1138
     31 H          -0.5136   11.1313    0.0570 H       1  LIG1        0.1232
     32 C          -4.1610    8.3391   -0.0144 C.ar    1  LIG1        0.0698
     33 C          -4.0399    9.7110   -0.0205 C.ar    1  LIG1        0.1474
     34 C          -5.3208   10.3515   -0.0311 C.ar    1  LIG1        0.0737
     35 C          -6.3457    9.4315   -0.0316 C.ar    1  LIG1       -0.0047
     36 S          -5.7642    7.8638   -0.0205 S.2     1  LIG1       -0.0911
     37 H          -7.6153    9.7107   -0.0396 H       1  LIG1        0.0707
     38 O          -2.9176   10.3672   -0.0175 O.3     1  LIG1       -0.5044
     39 H          -3.0978   11.3101   -0.0167 H       1  LIG1        0.2922
     40 C          -5.4692   11.6430   -0.0391 C.1     1  LIG1       -0.0655
     41 C          -5.6063   12.8363   -0.0464 C.1     1  LIG1       -0.1138
     42 H          -5.7284   13.8993   -0.0530 H       1  LIG1        0.1232
@<TRIPOS>BOND
     1    42    41    1
     2    41    40    3
     3    37    35    1
     4    40    34    1
     5    35    34   ar
     6    35    36   ar
     7    34    33   ar
     8    33    38    1
     9    33    32   ar
    10    36    32   ar
    11    26    25   ar
    12    26    22   ar
    13    38    39    1
    14    32    25    1
    15    25    24   ar
    16    11    10    1
    17    10     9    3
    18     9     3    1
    19     6     1    1
    20     8     7    1
    21     7     2    1
    22     1     2   ar
    23     1     5   ar
    24     2     3   ar
    25     3     4   ar
    26    21    20    1
    27     4     5   ar
    28     4    12    1
    29    20    19    3
    30    19    14    1
    31    18    17    1
    32    17    13    1
    33    12    13   ar
    34    12    16   ar
    35    13    14   ar
    36    14    15   ar
    37    16    15   ar
    38    15    22    1
    39    22    23   ar
    40    24    23   ar
    41    24    29    1
    42    23    27    1
    43    29    30    3
    44    27    28    1
    45    30    31    1
