@<TRIPOS>MOLECULE
mol_data/noopt/geoms/mol2/5fe5fe5fe5fe-.out
 42 45 0 0 0
SMALL
GASTEIGER

@<TRIPOS>ATOM
      1 C          -2.0792   -1.7080   -0.0002 C.ar    1  LIG1        0.0190
      2 C          -0.7020   -1.7080   -0.0002 C.ar    1  LIG1        0.1398
      3 C          -0.1766   -0.3757   -0.0002 C.ar    1  LIG1        0.0814
      4 C          -1.1831    0.5643    0.0006 C.ar    1  LIG1        0.0484
      5 S          -2.6937   -0.1528    0.0006 S.2     1  LIG1       -0.0910
      6 H          -2.8374   -2.7640   -0.0008 H       1  LIG1        0.0731
      7 O           0.0503   -2.7682   -0.0004 O.3     1  LIG1       -0.5050
      8 H           0.9738   -2.5059   -0.0004 H       1  LIG1        0.2922
      9 C           1.0969   -0.1143   -0.0009 C.1     1  LIG1       -0.0648
     10 C           2.2735    0.1272   -0.0015 C.1     1  LIG1       -0.1138
     11 H           3.3217    0.3424   -0.0021 H       1  LIG1        0.1232
     12 C          -1.0166    1.8536    0.0014 C.ar    1  LIG1        0.0704
     13 C           0.1956    2.5069    0.0205 C.ar    1  LIG1        0.1481
     14 C           0.0262    3.9290    0.0147 C.ar    1  LIG1        0.0820
     15 C          -1.3056    4.2790   -0.0075 C.ar    1  LIG1        0.0491
     16 S          -2.2951    2.9311   -0.0215 S.2     1  LIG1       -0.0820
     17 O           1.3607    1.9305    0.0410 O.3     1  LIG1       -0.5044
     18 H           2.0491    2.5995    0.0461 H       1  LIG1        0.2922
     19 C           1.0231    4.7632    0.0291 C.1     1  LIG1       -0.0648
     20 C           1.9443    5.5341    0.0424 C.1     1  LIG1       -0.1138
     21 H           2.7648    6.2207    0.0542 H       1  LIG1        0.1232
     22 C          -1.7706    5.4930   -0.0170 C.ar    1  LIG1        0.0704
     23 C          -1.0132    6.6432   -0.0232 C.ar    1  LIG1        0.1481
     24 C          -1.8369    7.8147   -0.0340 C.ar    1  LIG1        0.0820
     25 C          -3.1756    7.4910   -0.0345 C.ar    1  LIG1        0.0490
     26 S          -3.4074    5.8350   -0.0232 S.2     1  LIG1       -0.0820
     27 O           0.2861    6.6885   -0.0202 O.3     1  LIG1       -0.5044
     28 H           0.5748    7.6040   -0.0194 H       1  LIG1        0.2922
     29 C          -1.3549    9.0220   -0.0421 C.1     1  LIG1       -0.0648
     30 C          -0.9095   10.1375   -0.0495 C.1     1  LIG1       -0.1138
     31 H          -0.5127   11.1312   -0.0562 H       1  LIG1        0.1232
     32 C          -4.1608    8.3391   -0.0426 C.ar    1  LIG1        0.0698
     33 C          -4.0397    9.7110   -0.0479 C.ar    1  LIG1        0.1474
     34 C          -5.3206   10.3514   -0.0572 C.ar    1  LIG1        0.0737
     35 C          -6.3455    9.4315   -0.0576 C.ar    1  LIG1       -0.0047
     36 S          -5.7640    7.8637   -0.0478 S.2     1  LIG1       -0.0911
     37 H          -7.6151    9.7107   -0.0644 H       1  LIG1        0.0707
     38 O          -2.9174   10.3672   -0.0453 O.3     1  LIG1       -0.5044
     39 H          -3.0976   11.3101   -0.0447 H       1  LIG1        0.2922
     40 C          -5.4690   11.6429   -0.0642 C.1     1  LIG1       -0.0655
     41 C          -5.6061   12.8363   -0.0708 C.1     1  LIG1       -0.1138
     42 H          -5.7283   13.8993   -0.0766 H       1  LIG1        0.1232
@<TRIPOS>BOND
     1    42    41    1
     2    41    40    3
     3    37    35    1
     4    40    34    1
     5    35    34   ar
     6    35    36   ar
     7    34    33   ar
     8    31    30    1
     9    30    29    3
    10    33    38    1
    11    33    32   ar
    12    36    32   ar
    13    38    39    1
    14    32    25    1
    15    29    24    1
    16    25    24   ar
    17    25    26   ar
    18    24    23   ar
    19    23    27    1
    20    23    22   ar
    21    26    22   ar
    22    16    15   ar
    23    16    12   ar
    24    27    28    1
    25    22    15    1
    26    15    14   ar
    27    11    10    1
    28    10     9    3
    29     9     3    1
    30     6     1    1
    31     8     7    1
    32     7     2    1
    33     2     1   ar
    34     2     3   ar
    35     1     5   ar
    36     3     4   ar
    37     5     4   ar
    38     4    12    1
    39    12    13   ar
    40    14    13   ar
    41    14    19    1
    42    13    17    1
    43    19    20    3
    44    17    18    1
    45    20    21    1
