@<TRIPOS>MOLECULE
mol_data/noopt/geoms/mol2/5fe5fe-5fe5fe-.out
 42 45 0 0 0
SMALL
GASTEIGER

@<TRIPOS>ATOM
      1 C          -2.0792   -1.7080   -0.0002 C.ar    1  LIG1        0.0190
      2 C          -0.7020   -1.7080   -0.0002 C.ar    1  LIG1        0.1398
      3 C          -0.1766   -0.3757   -0.0002 C.ar    1  LIG1        0.0814
      4 C          -1.1831    0.5643    0.0006 C.ar    1  LIG1        0.0484
      5 S          -2.6937   -0.1528    0.0006 S.2     1  LIG1       -0.0910
      6 H          -2.8374   -2.7640   -0.0008 H       1  LIG1        0.0731
      7 O           0.0503   -2.7682   -0.0004 O.3     1  LIG1       -0.5050
      8 H           0.9738   -2.5059   -0.0004 H       1  LIG1        0.2922
      9 C           1.0969   -0.1143   -0.0009 C.1     1  LIG1       -0.0648
     10 C           2.2735    0.1272   -0.0015 C.1     1  LIG1       -0.1138
     11 H           3.3217    0.3424   -0.0021 H       1  LIG1        0.1232
     12 C          -1.0166    1.8536    0.0014 C.ar    1  LIG1        0.0704
     13 C           0.1958    2.5069    0.0015 C.ar    1  LIG1        0.1481
     14 C           0.0263    3.9290    0.0017 C.ar    1  LIG1        0.0820
     15 C          -1.3057    4.2790    0.0026 C.ar    1  LIG1        0.0491
     16 S          -2.2953    2.9311    0.0023 S.2     1  LIG1       -0.0820
     17 O           1.3610    1.9305    0.0013 O.3     1  LIG1       -0.5044
     18 H           2.0495    2.5995    0.0012 H       1  LIG1        0.2922
     19 C           1.0233    4.7632    0.0012 C.1     1  LIG1       -0.0648
     20 C           1.9446    5.5340    0.0007 C.1     1  LIG1       -0.1138
     21 H           2.7652    6.2207    0.0002 H       1  LIG1        0.1232
     22 C          -1.7708    5.4930    0.0035 C.ar    1  LIG1        0.0704
     23 C          -1.0134    6.6433    0.0038 C.ar    1  LIG1        0.1481
     24 C          -1.8373    7.8147    0.0042 C.ar    1  LIG1        0.0820
     25 C          -3.1759    7.4910    0.0050 C.ar    1  LIG1        0.0490
     26 S          -3.4076    5.8350    0.0046 S.2     1  LIG1       -0.0820
     27 O           0.2858    6.6886    0.0035 O.3     1  LIG1       -0.5044
     28 H           0.5745    7.6042    0.0034 H       1  LIG1        0.2922
     29 C          -1.3553    9.0221    0.0038 C.1     1  LIG1       -0.0648
     30 C          -0.9100   10.1377    0.0034 C.1     1  LIG1       -0.1138
     31 H          -0.5133   11.1315    0.0030 H       1  LIG1        0.1232
     32 C          -4.1612    8.3391    0.0062 C.ar    1  LIG1        0.0698
     33 C          -4.0401    9.7109    0.0065 C.ar    1  LIG1        0.1474
     34 C          -5.3211   10.3514    0.0071 C.ar    1  LIG1        0.0737
     35 C          -6.3459    9.4314    0.0079 C.ar    1  LIG1       -0.0047
     36 S          -5.7643    7.8636    0.0073 S.2     1  LIG1       -0.0911
     37 H          -7.6156    9.7105    0.0092 H       1  LIG1        0.0707
     38 O          -2.9179   10.3672    0.0061 O.3     1  LIG1       -0.5044
     39 H          -3.0981   11.3101    0.0060 H       1  LIG1        0.2922
     40 C          -5.4696   11.6429    0.0067 C.1     1  LIG1       -0.0655
     41 C          -5.6068   12.8362    0.0065 C.1     1  LIG1       -0.1138
     42 H          -5.7290   13.8992    0.0062 H       1  LIG1        0.1232
@<TRIPOS>BOND
     1    11    10    1
     2    10     9    3
     3     9     3    1
     4     6     1    1
     5     8     7    1
     6     7     2    1
     7     2     3   ar
     8     2     1   ar
     9     3     4   ar
    10     1     5   ar
    11    21    20    1
    12     4     5   ar
    13     4    12    1
    14    20    19    3
    15    19    14    1
    16    18    17    1
    17    17    13    1
    18    12    13   ar
    19    12    16   ar
    20    13    14   ar
    21    14    15   ar
    22    16    15   ar
    23    15    22    1
    24    31    30    1
    25    30    29    3
    26    28    27    1
    27    27    23    1
    28    22    23   ar
    29    22    26   ar
    30    29    24    1
    31    23    24   ar
    32    24    25   ar
    33    26    25   ar
    34    25    32    1
    35    39    38    1
    36    38    33    1
    37    32    33   ar
    38    32    36   ar
    39    42    41    1
    40    41    40    3
    41    33    34   ar
    42    40    34    1
    43    34    35   ar
    44    36    35   ar
    45    35    37    1
