@<TRIPOS>MOLECULE
mol_data/noopt/geoms/mol2/5fe5fe-5fe-5fe.out
 42 45 0 0 0
SMALL
GASTEIGER

@<TRIPOS>ATOM
      1 C          -2.0792   -1.7080   -0.0002 C.ar    1  LIG1        0.0190
      2 C          -0.7020   -1.7080   -0.0002 C.ar    1  LIG1        0.1398
      3 C          -0.1766   -0.3757   -0.0002 C.ar    1  LIG1        0.0814
      4 C          -1.1831    0.5643    0.0006 C.ar    1  LIG1        0.0484
      5 S          -2.6937   -0.1528    0.0006 S.2     1  LIG1       -0.0910
      6 H          -2.8374   -2.7640   -0.0008 H       1  LIG1        0.0731
      7 O           0.0503   -2.7682   -0.0004 O.3     1  LIG1       -0.5050
      8 H           0.9738   -2.5059   -0.0004 H       1  LIG1        0.2922
      9 C           1.0969   -0.1143   -0.0009 C.1     1  LIG1       -0.0648
     10 C           2.2735    0.1272   -0.0015 C.1     1  LIG1       -0.1138
     11 H           3.3217    0.3424   -0.0021 H       1  LIG1        0.1232
     12 C          -1.0166    1.8536    0.0014 C.ar    1  LIG1        0.0704
     13 C           0.1958    2.5069    0.0015 C.ar    1  LIG1        0.1481
     14 C           0.0263    3.9290    0.0017 C.ar    1  LIG1        0.0820
     15 C          -1.3057    4.2790    0.0026 C.ar    1  LIG1        0.0491
     16 S          -2.2953    2.9311    0.0023 S.2     1  LIG1       -0.0820
     17 O           1.3610    1.9305    0.0013 O.3     1  LIG1       -0.5044
     18 H           2.0495    2.5995    0.0012 H       1  LIG1        0.2922
     19 C           1.0233    4.7632    0.0012 C.1     1  LIG1       -0.0648
     20 C           1.9446    5.5340    0.0007 C.1     1  LIG1       -0.1138
     21 H           2.7652    6.2207    0.0002 H       1  LIG1        0.1232
     22 C          -1.7708    5.4930    0.0035 C.ar    1  LIG1        0.0704
     23 C          -1.0136    6.6432    0.0227 C.ar    1  LIG1        0.1481
     24 C          -1.8374    7.8147    0.0172 C.ar    1  LIG1        0.0820
     25 C          -3.1758    7.4910   -0.0051 C.ar    1  LIG1        0.0490
     26 S          -3.4074    5.8351   -0.0192 S.2     1  LIG1       -0.0820
     27 O           0.2855    6.6885    0.0432 O.3     1  LIG1       -0.5044
     28 H           0.5742    7.6040    0.0482 H       1  LIG1        0.2922
     29 C          -1.3555    9.0220    0.0317 C.1     1  LIG1       -0.0648
     30 C          -0.9102   10.1376    0.0451 C.1     1  LIG1       -0.1138
     31 H          -0.5136   11.1313    0.0570 H       1  LIG1        0.1232
     32 C          -4.1610    8.3391   -0.0144 C.ar    1  LIG1        0.0698
     33 C          -4.0401    9.7110   -0.0016 C.ar    1  LIG1        0.1474
     34 C          -5.3209   10.3515   -0.0181 C.ar    1  LIG1        0.0737
     35 C          -6.3455    9.4316   -0.0417 C.ar    1  LIG1       -0.0047
     36 S          -5.7639    7.8638   -0.0443 S.2     1  LIG1       -0.0911
     37 H          -7.6151    9.7108   -0.0601 H       1  LIG1        0.0707
     38 O          -2.9180   10.3671    0.0222 O.3     1  LIG1       -0.5044
     39 H          -3.0983   11.3100    0.0281 H       1  LIG1        0.2922
     40 C          -5.4695   11.6429   -0.0111 C.1     1  LIG1       -0.0655
     41 C          -5.6067   12.8363   -0.0047 C.1     1  LIG1       -0.1138
     42 H          -5.7289   13.8992    0.0010 H       1  LIG1        0.1232
@<TRIPOS>BOND
     1    37    35    1
     2    36    35   ar
     3    36    32   ar
     4    35    34   ar
     5    26    25   ar
     6    26    22   ar
     7    34    40    1
     8    34    33   ar
     9    32    25    1
    10    32    33   ar
    11    40    41    3
    12    25    24   ar
    13    41    42    1
    14    11    10    1
    15    33    38    1
    16    10     9    3
    17     9     3    1
    18     6     1    1
    19     8     7    1
    20     7     2    1
    21     1     2   ar
    22     1     5   ar
    23     3     2   ar
    24     3     4   ar
    25    21    20    1
    26     5     4   ar
    27     4    12    1
    28    20    19    3
    29    19    14    1
    30    18    17    1
    31    17    13    1
    32    12    13   ar
    33    12    16   ar
    34    13    14   ar
    35    14    15   ar
    36    16    15   ar
    37    15    22    1
    38    22    23   ar
    39    24    23   ar
    40    24    29    1
    41    38    39    1
    42    23    27    1
    43    29    30    3
    44    27    28    1
    45    30    31    1
