@<TRIPOS>MOLECULE
mol_data/noopt/geoms/mol2/5fe5fe-5fe-.out
 32 34 0 0 0
SMALL
GASTEIGER

@<TRIPOS>ATOM
      1 C          -2.0792   -1.7080   -0.0002 C.ar    1  LIG1        0.0190
      2 C          -0.7020   -1.7080   -0.0002 C.ar    1  LIG1        0.1398
      3 C          -0.1766   -0.3757   -0.0002 C.ar    1  LIG1        0.0814
      4 C          -1.1831    0.5643    0.0006 C.ar    1  LIG1        0.0484
      5 S          -2.6937   -0.1528    0.0006 S.2     1  LIG1       -0.0910
      6 H          -2.8374   -2.7640   -0.0008 H       1  LIG1        0.0731
      7 O           0.0503   -2.7682   -0.0004 O.3     1  LIG1       -0.5050
      8 H           0.9738   -2.5059   -0.0004 H       1  LIG1        0.2922
      9 C           1.0969   -0.1143   -0.0009 C.1     1  LIG1       -0.0648
     10 C           2.2735    0.1272   -0.0015 C.1     1  LIG1       -0.1138
     11 H           3.3217    0.3424   -0.0021 H       1  LIG1        0.1232
     12 C          -1.0166    1.8536    0.0014 C.ar    1  LIG1        0.0704
     13 C           0.1958    2.5069    0.0015 C.ar    1  LIG1        0.1481
     14 C           0.0263    3.9290    0.0017 C.ar    1  LIG1        0.0820
     15 C          -1.3057    4.2790    0.0026 C.ar    1  LIG1        0.0490
     16 S          -2.2953    2.9311    0.0023 S.2     1  LIG1       -0.0820
     17 O           1.3610    1.9305    0.0013 O.3     1  LIG1       -0.5044
     18 H           2.0495    2.5995    0.0012 H       1  LIG1        0.2922
     19 C           1.0233    4.7632    0.0012 C.1     1  LIG1       -0.0648
     20 C           1.9446    5.5340    0.0007 C.1     1  LIG1       -0.1138
     21 H           2.7652    6.2207    0.0002 H       1  LIG1        0.1232
     22 C          -1.7708    5.4930    0.0035 C.ar    1  LIG1        0.0698
     23 C          -1.0136    6.6432    0.0227 C.ar    1  LIG1        0.1474
     24 C          -1.8374    7.8147    0.0172 C.ar    1  LIG1        0.0737
     25 C          -3.1758    7.4910   -0.0051 C.ar    1  LIG1       -0.0047
     26 S          -3.4074    5.8351   -0.0192 S.2     1  LIG1       -0.0911
     27 H          -4.1610    8.3391   -0.0144 H       1  LIG1        0.0707
     28 O           0.2855    6.6885    0.0432 O.3     1  LIG1       -0.5044
     29 H           0.5742    7.6040    0.0482 H       1  LIG1        0.2922
     30 C          -1.3555    9.0220    0.0317 C.1     1  LIG1       -0.0655
     31 C          -0.9102   10.1376    0.0451 C.1     1  LIG1       -0.1138
     32 H          -0.5136   11.1313    0.0570 H       1  LIG1        0.1232
@<TRIPOS>BOND
     1    26    25   ar
     2    26    22   ar
     3    27    25    1
     4    25    24   ar
     5    11    10    1
     6    10     9    3
     7     9     3    1
     8     6     1    1
     9     8     7    1
    10     7     2    1
    11     1     2   ar
    12     1     5   ar
    13     3     2   ar
    14     3     4   ar
    15    21    20    1
    16     5     4   ar
    17     4    12    1
    18    20    19    3
    19    19    14    1
    20    18    17    1
    21    17    13    1
    22    12    13   ar
    23    12    16   ar
    24    13    14   ar
    25    14    15   ar
    26    16    15   ar
    27    15    22    1
    28    22    23   ar
    29    24    23   ar
    30    24    30    1
    31    23    28    1
    32    30    31    3
    33    28    29    1
    34    31    32    1
