@<TRIPOS>MOLECULE
mol_data/noopt/geoms/mol2/5fe5fe5fe-5fe.out
 42 45 0 0 0
SMALL
GASTEIGER

@<TRIPOS>ATOM
      1 C          -2.0792   -1.7080   -0.0002 C.ar    1  LIG1        0.0190
      2 C          -0.7020   -1.7080   -0.0002 C.ar    1  LIG1        0.1398
      3 C          -0.1766   -0.3757   -0.0002 C.ar    1  LIG1        0.0814
      4 C          -1.1831    0.5643    0.0006 C.ar    1  LIG1        0.0484
      5 S          -2.6937   -0.1528    0.0006 S.2     1  LIG1       -0.0910
      6 H          -2.8374   -2.7640   -0.0008 H       1  LIG1        0.0731
      7 O           0.0503   -2.7682   -0.0004 O.3     1  LIG1       -0.5050
      8 H           0.9738   -2.5059   -0.0004 H       1  LIG1        0.2922
      9 C           1.0969   -0.1143   -0.0009 C.1     1  LIG1       -0.0648
     10 C           2.2735    0.1272   -0.0015 C.1     1  LIG1       -0.1138
     11 H           3.3217    0.3424   -0.0021 H       1  LIG1        0.1232
     12 C          -1.0166    1.8536    0.0014 C.ar    1  LIG1        0.0704
     13 C           0.1956    2.5069    0.0205 C.ar    1  LIG1        0.1481
     14 C           0.0262    3.9290    0.0147 C.ar    1  LIG1        0.0820
     15 C          -1.3056    4.2790   -0.0075 C.ar    1  LIG1        0.0491
     16 S          -2.2951    2.9311   -0.0215 S.2     1  LIG1       -0.0820
     17 O           1.3607    1.9305    0.0410 O.3     1  LIG1       -0.5044
     18 H           2.0491    2.5995    0.0461 H       1  LIG1        0.2922
     19 C           1.0231    4.7632    0.0291 C.1     1  LIG1       -0.0648
     20 C           1.9443    5.5341    0.0424 C.1     1  LIG1       -0.1138
     21 H           2.7648    6.2207    0.0542 H       1  LIG1        0.1232
     22 C          -1.7706    5.4930   -0.0170 C.ar    1  LIG1        0.0704
     23 C          -1.0134    6.6433   -0.0043 C.ar    1  LIG1        0.1481
     24 C          -1.8371    7.8147   -0.0210 C.ar    1  LIG1        0.0820
     25 C          -3.1754    7.4910   -0.0446 C.ar    1  LIG1        0.0490
     26 S          -3.4072    5.8350   -0.0470 S.2     1  LIG1       -0.0820
     27 O           0.2857    6.6886    0.0196 O.3     1  LIG1       -0.5044
     28 H           0.5743    7.6042    0.0255 H       1  LIG1        0.2922
     29 C          -1.3552    9.0221   -0.0141 C.1     1  LIG1       -0.0648
     30 C          -0.9099   10.1377   -0.0078 C.1     1  LIG1       -0.1138
     31 H          -0.5132   11.1314   -0.0022 H       1  LIG1        0.1232
     32 C          -4.1606    8.3390   -0.0631 C.ar    1  LIG1        0.0698
     33 C          -4.0397    9.7109   -0.0560 C.ar    1  LIG1        0.1474
     34 C          -5.3204   10.3513   -0.0823 C.ar    1  LIG1        0.0737
     35 C          -6.3449    9.4313   -0.1072 C.ar    1  LIG1       -0.0047
     36 S          -5.7633    7.8636   -0.0994 S.2     1  LIG1       -0.0911
     37 H          -7.6143    9.7105   -0.1337 H       1  LIG1        0.0707
     38 O          -2.9178   10.3672   -0.0292 O.3     1  LIG1       -0.5044
     39 H          -3.0982   11.3100   -0.0226 H       1  LIG1        0.2922
     40 C          -5.4689   11.6428   -0.0821 C.1     1  LIG1       -0.0655
     41 C          -5.6062   12.8362   -0.0819 C.1     1  LIG1       -0.1138
     42 H          -5.7284   13.8991   -0.0818 H       1  LIG1        0.1232
@<TRIPOS>BOND
     1    37    35    1
     2    35    36   ar
     3    35    34   ar
     4    36    32   ar
     5    34    40    1
     6    34    33   ar
     7    40    41    3
     8    41    42    1
     9    32    33   ar
    10    32    25    1
    11    33    38    1
    12    26    25   ar
    13    26    22   ar
    14    25    24   ar
    15    38    39    1
    16    16    15   ar
    17    16    12   ar
    18    24    29    1
    19    24    23   ar
    20    22    15    1
    21    22    23   ar
    22    29    30    3
    23    30    31    1
    24    15    14   ar
    25    23    27    1
    26    11    10    1
    27    10     9    3
    28     9     3    1
    29     6     1    1
    30     8     7    1
    31     7     2    1
    32     2     3   ar
    33     2     1   ar
    34     3     4   ar
    35     1     5   ar
    36     5     4   ar
    37     4    12    1
    38    12    13   ar
    39    14    13   ar
    40    14    19    1
    41    27    28    1
    42    13    17    1
    43    19    20    3
    44    17    18    1
    45    20    21    1
