@<TRIPOS>MOLECULE
mol_data/noopt/geoms/mol2/5fe5fe-.out
 22 23 0 0 0
SMALL
GASTEIGER

@<TRIPOS>ATOM
      1 C          -2.0792   -1.7080   -0.0002 C.ar    1  LIG1        0.0190
      2 C          -0.7020   -1.7080   -0.0002 C.ar    1  LIG1        0.1398
      3 C          -0.1766   -0.3757   -0.0002 C.ar    1  LIG1        0.0814
      4 C          -1.1831    0.5643    0.0006 C.ar    1  LIG1        0.0484
      5 S          -2.6937   -0.1528    0.0006 S.2     1  LIG1       -0.0910
      6 H          -2.8374   -2.7640   -0.0008 H       1  LIG1        0.0731
      7 O           0.0503   -2.7682   -0.0004 O.3     1  LIG1       -0.5050
      8 H           0.9738   -2.5059   -0.0004 H       1  LIG1        0.2922
      9 C           1.0969   -0.1143   -0.0009 C.1     1  LIG1       -0.0648
     10 C           2.2735    0.1272   -0.0015 C.1     1  LIG1       -0.1138
     11 H           3.3217    0.3424   -0.0021 H       1  LIG1        0.1232
     12 C          -1.0166    1.8536    0.0014 C.ar    1  LIG1        0.0698
     13 C           0.1958    2.5069    0.0015 C.ar    1  LIG1        0.1474
     14 C           0.0263    3.9290    0.0017 C.ar    1  LIG1        0.0737
     15 C          -1.3057    4.2790    0.0026 C.ar    1  LIG1       -0.0047
     16 S          -2.2953    2.9311    0.0023 S.2     1  LIG1       -0.0911
     17 H          -1.7708    5.4930    0.0035 H       1  LIG1        0.0707
     18 O           1.3610    1.9305    0.0013 O.3     1  LIG1       -0.5044
     19 H           2.0495    2.5995    0.0012 H       1  LIG1        0.2922
     20 C           1.0233    4.7632    0.0012 C.1     1  LIG1       -0.0655
     21 C           1.9446    5.5340    0.0007 C.1     1  LIG1       -0.1138
     22 H           2.7652    6.2207    0.0002 H       1  LIG1        0.1232
@<TRIPOS>BOND
     1    11    10    1
     2    10     9    3
     3     9     3    1
     4     6     1    1
     5     8     7    1
     6     7     2    1
     7     2     3   ar
     8     2     1   ar
     9     3     4   ar
    10     1     5   ar
    11    22    21    1
    12     5     4   ar
    13     4    12    1
    14    21    20    3
    15    20    14    1
    16    19    18    1
    17    18    13    1
    18    12    13   ar
    19    12    16   ar
    20    13    14   ar
    21    14    15   ar
    22    16    15   ar
    23    15    17    1
