@<TRIPOS>MOLECULE
mol_data/noopt/geoms/mol2/5fe5fe5fe-.out
 32 34 0 0 0
SMALL
GASTEIGER

@<TRIPOS>ATOM
      1 C          -2.0792   -1.7080   -0.0002 C.ar    1  LIG1        0.0190
      2 C          -0.7020   -1.7080   -0.0002 C.ar    1  LIG1        0.1398
      3 C          -0.1766   -0.3757   -0.0002 C.ar    1  LIG1        0.0814
      4 C          -1.1831    0.5643    0.0006 C.ar    1  LIG1        0.0484
      5 S          -2.6937   -0.1528    0.0006 S.2     1  LIG1       -0.0910
      6 H          -2.8374   -2.7640   -0.0008 H       1  LIG1        0.0731
      7 O           0.0503   -2.7682   -0.0004 O.3     1  LIG1       -0.5050
      8 H           0.9738   -2.5059   -0.0004 H       1  LIG1        0.2922
      9 C           1.0969   -0.1143   -0.0009 C.1     1  LIG1       -0.0648
     10 C           2.2735    0.1272   -0.0015 C.1     1  LIG1       -0.1138
     11 H           3.3217    0.3424   -0.0021 H       1  LIG1        0.1232
     12 C          -1.0166    1.8536    0.0014 C.ar    1  LIG1        0.0704
     13 C           0.1956    2.5069    0.0205 C.ar    1  LIG1        0.1481
     14 C           0.0262    3.9290    0.0147 C.ar    1  LIG1        0.0820
     15 C          -1.3056    4.2790   -0.0075 C.ar    1  LIG1        0.0490
     16 S          -2.2951    2.9311   -0.0215 S.2     1  LIG1       -0.0820
     17 O           1.3607    1.9305    0.0410 O.3     1  LIG1       -0.5044
     18 H           2.0491    2.5995    0.0461 H       1  LIG1        0.2922
     19 C           1.0231    4.7632    0.0291 C.1     1  LIG1       -0.0648
     20 C           1.9443    5.5341    0.0424 C.1     1  LIG1       -0.1138
     21 H           2.7648    6.2207    0.0542 H       1  LIG1        0.1232
     22 C          -1.7706    5.4930   -0.0170 C.ar    1  LIG1        0.0698
     23 C          -1.0134    6.6433   -0.0043 C.ar    1  LIG1        0.1474
     24 C          -1.8371    7.8147   -0.0210 C.ar    1  LIG1        0.0737
     25 C          -3.1754    7.4910   -0.0446 C.ar    1  LIG1       -0.0047
     26 S          -3.4072    5.8350   -0.0470 S.2     1  LIG1       -0.0911
     27 H          -4.1606    8.3390   -0.0631 H       1  LIG1        0.0707
     28 O           0.2857    6.6886    0.0196 O.3     1  LIG1       -0.5044
     29 H           0.5743    7.6042    0.0255 H       1  LIG1        0.2922
     30 C          -1.3552    9.0221   -0.0141 C.1     1  LIG1       -0.0655
     31 C          -0.9099   10.1377   -0.0078 C.1     1  LIG1       -0.1138
     32 H          -0.5132   11.1314   -0.0022 H       1  LIG1        0.1232
@<TRIPOS>BOND
     1    27    25    1
     2    26    25   ar
     3    26    22   ar
     4    25    24   ar
     5    16    15   ar
     6    16    12   ar
     7    24    30    1
     8    24    23   ar
     9    22    15    1
    10    22    23   ar
    11    30    31    3
    12    31    32    1
    13    15    14   ar
    14    23    28    1
    15    11    10    1
    16    10     9    3
    17     9     3    1
    18     6     1    1
    19     8     7    1
    20     7     2    1
    21     1     2   ar
    22     1     5   ar
    23     3     2   ar
    24     3     4   ar
    25     5     4   ar
    26     4    12    1
    27    12    13   ar
    28    14    13   ar
    29    14    19    1
    30    28    29    1
    31    13    17    1
    32    19    20    3
    33    17    18    1
    34    20    21    1
