@<TRIPOS>MOLECULE
mol_data/noopt/geoms/mol2/5ff5ff5ff.out
 29 31 0 0 0
SMALL
GASTEIGER

@<TRIPOS>ATOM
      1 C          -2.0792   -1.7080   -0.0002 C.ar    1  LIG1        0.0215
      2 C          -0.7020   -1.7080   -0.0002 C.ar    1  LIG1        0.1661
      3 C          -0.1766   -0.3757   -0.0002 C.ar    1  LIG1        0.1740
      4 C          -1.1831    0.5643    0.0006 C.ar    1  LIG1        0.0747
      5 S          -2.6937   -0.1528    0.0006 S.2     1  LIG1       -0.0885
      6 H          -2.8374   -2.7640   -0.0008 H       1  LIG1        0.0731
      7 O           0.0503   -2.7682   -0.0004 O.3     1  LIG1       -0.5029
      8 H           0.9738   -2.5059   -0.0004 H       1  LIG1        0.2923
      9 O           1.0969   -0.1143   -0.0009 O.3     1  LIG1       -0.5025
     10 H           1.2288    0.8366   -0.0011 H       1  LIG1        0.2923
     11 C          -1.0166    1.8536    0.0014 C.ar    1  LIG1        0.0753
     12 C           0.1956    2.5069    0.0205 C.ar    1  LIG1        0.1746
     13 C           0.0262    3.9290    0.0147 C.ar    1  LIG1        0.1746
     14 C          -1.3056    4.2790   -0.0075 C.ar    1  LIG1        0.0753
     15 S          -2.2951    2.9311   -0.0215 S.2     1  LIG1       -0.0794
     16 O           1.3607    1.9305    0.0410 O.3     1  LIG1       -0.5025
     17 H           2.0491    2.5995    0.0461 H       1  LIG1        0.2923
     18 O           1.0231    4.7633    0.0291 O.3     1  LIG1       -0.5025
     19 H           0.6881    5.6629    0.0327 H       1  LIG1        0.2923
     20 C          -1.7706    5.4930   -0.0170 C.ar    1  LIG1        0.0747
     21 C          -1.0132    6.6432   -0.0232 C.ar    1  LIG1        0.1740
     22 C          -1.8369    7.8147   -0.0340 C.ar    1  LIG1        0.1661
     23 C          -3.1756    7.4910   -0.0345 C.ar    1  LIG1        0.0215
     24 S          -3.4074    5.8350   -0.0232 S.2     1  LIG1       -0.0885
     25 H          -4.1608    8.3391   -0.0426 H       1  LIG1        0.0731
     26 O           0.2861    6.6885   -0.0202 O.3     1  LIG1       -0.5025
     27 H           0.5748    7.6040   -0.0194 H       1  LIG1        0.2923
     28 O          -1.3549    9.0220   -0.0421 O.3     1  LIG1       -0.5029
     29 H          -2.0765    9.6551   -0.0441 H       1  LIG1        0.2923
@<TRIPOS>BOND
     1    29    28    1
     2    25    23    1
     3    28    22    1
     4    23    22   ar
     5    23    24   ar
     6    22    21   ar
     7    21    26    1
     8    21    20   ar
     9    24    20   ar
    10    15    14   ar
    11    15    11   ar
    12    26    27    1
    13    20    14    1
    14    14    13   ar
    15    10     9    1
    16     9     3    1
    17     6     1    1
    18     8     7    1
    19     7     2    1
    20     2     3   ar
    21     2     1   ar
    22     3     4   ar
    23     1     5   ar
    24     5     4   ar
    25     4    11    1
    26    11    12   ar
    27    13    12   ar
    28    13    18    1
    29    12    16    1
    30    18    19    1
    31    16    17    1
