@<TRIPOS>MOLECULE
mol_data/noopt/geoms/mol2/5ff5ff-5ff.out
 29 31 0 0 0
SMALL
GASTEIGER

@<TRIPOS>ATOM
      1 C          -2.0792   -1.7080   -0.0002 C.ar    1  LIG1        0.0215
      2 C          -0.7020   -1.7080   -0.0002 C.ar    1  LIG1        0.1661
      3 C          -0.1766   -0.3757   -0.0002 C.ar    1  LIG1        0.1740
      4 C          -1.1831    0.5643    0.0006 C.ar    1  LIG1        0.0747
      5 S          -2.6937   -0.1528    0.0006 S.2     1  LIG1       -0.0885
      6 H          -2.8374   -2.7640   -0.0008 H       1  LIG1        0.0731
      7 O           0.0503   -2.7682   -0.0004 O.3     1  LIG1       -0.5029
      8 H           0.9738   -2.5059   -0.0004 H       1  LIG1        0.2923
      9 O           1.0969   -0.1143   -0.0009 O.3     1  LIG1       -0.5025
     10 H           1.2288    0.8366   -0.0011 H       1  LIG1        0.2923
     11 C          -1.0166    1.8536    0.0014 C.ar    1  LIG1        0.0753
     12 C           0.1958    2.5069    0.0015 C.ar    1  LIG1        0.1746
     13 C           0.0263    3.9290    0.0017 C.ar    1  LIG1        0.1746
     14 C          -1.3057    4.2790    0.0026 C.ar    1  LIG1        0.0753
     15 S          -2.2953    2.9311    0.0023 S.2     1  LIG1       -0.0794
     16 O           1.3610    1.9305    0.0013 O.3     1  LIG1       -0.5025
     17 H           2.0495    2.5995    0.0012 H       1  LIG1        0.2923
     18 O           1.0233    4.7633    0.0012 O.3     1  LIG1       -0.5025
     19 H           0.6884    5.6629    0.0010 H       1  LIG1        0.2923
     20 C          -1.7708    5.4930    0.0035 C.ar    1  LIG1        0.0747
     21 C          -1.0134    6.6433    0.0038 C.ar    1  LIG1        0.1740
     22 C          -1.8373    7.8147    0.0042 C.ar    1  LIG1        0.1661
     23 C          -3.1759    7.4910    0.0050 C.ar    1  LIG1        0.0215
     24 S          -3.4076    5.8350    0.0046 S.2     1  LIG1       -0.0885
     25 H          -4.1612    8.3391    0.0062 H       1  LIG1        0.0731
     26 O           0.2858    6.6886    0.0035 O.3     1  LIG1       -0.5025
     27 H           0.5745    7.6042    0.0034 H       1  LIG1        0.2923
     28 O          -1.3553    9.0221    0.0038 O.3     1  LIG1       -0.5029
     29 H          -2.0770    9.6552    0.0036 H       1  LIG1        0.2923
@<TRIPOS>BOND
     1    10     9    1
     2     9     3    1
     3     6     1    1
     4     8     7    1
     5     7     2    1
     6     2     3   ar
     7     2     1   ar
     8     3     4   ar
     9     1     5   ar
    10     4     5   ar
    11     4    11    1
    12    19    18    1
    13    18    13    1
    14    17    16    1
    15    16    12    1
    16    11    12   ar
    17    11    15   ar
    18    12    13   ar
    19    13    14   ar
    20    15    14   ar
    21    14    20    1
    22    27    26    1
    23    26    21    1
    24    20    21   ar
    25    20    24   ar
    26    29    28    1
    27    28    22    1
    28    21    22   ar
    29    22    23   ar
    30    24    23   ar
    31    23    25    1
