@<TRIPOS>MOLECULE
mol_data/noopt/geoms/mol2/5ff5ff-.out
 20 21 0 0 0
SMALL
GASTEIGER

@<TRIPOS>ATOM
      1 C          -2.0792   -1.7080   -0.0002 C.ar    1  LIG1        0.0215
      2 C          -0.7020   -1.7080   -0.0002 C.ar    1  LIG1        0.1661
      3 C          -0.1766   -0.3757   -0.0002 C.ar    1  LIG1        0.1740
      4 C          -1.1831    0.5643    0.0006 C.ar    1  LIG1        0.0747
      5 S          -2.6937   -0.1528    0.0006 S.2     1  LIG1       -0.0885
      6 H          -2.8374   -2.7640   -0.0008 H       1  LIG1        0.0731
      7 O           0.0503   -2.7682   -0.0004 O.3     1  LIG1       -0.5029
      8 H           0.9738   -2.5059   -0.0004 H       1  LIG1        0.2923
      9 O           1.0969   -0.1143   -0.0009 O.3     1  LIG1       -0.5025
     10 H           1.2288    0.8366   -0.0011 H       1  LIG1        0.2923
     11 C          -1.0166    1.8536    0.0014 C.ar    1  LIG1        0.0747
     12 C           0.1958    2.5069    0.0015 C.ar    1  LIG1        0.1740
     13 C           0.0263    3.9290    0.0017 C.ar    1  LIG1        0.1661
     14 C          -1.3057    4.2790    0.0026 C.ar    1  LIG1        0.0215
     15 S          -2.2953    2.9311    0.0023 S.2     1  LIG1       -0.0885
     16 H          -1.7708    5.4930    0.0035 H       1  LIG1        0.0731
     17 O           1.3610    1.9305    0.0013 O.3     1  LIG1       -0.5025
     18 H           2.0495    2.5995    0.0012 H       1  LIG1        0.2923
     19 O           1.0233    4.7633    0.0012 O.3     1  LIG1       -0.5029
     20 H           0.6884    5.6629    0.0010 H       1  LIG1        0.2923
@<TRIPOS>BOND
     1    10     9    1
     2     9     3    1
     3     6     1    1
     4     8     7    1
     5     7     2    1
     6     2     3   ar
     7     2     1   ar
     8     3     4   ar
     9     1     5   ar
    10     4     5   ar
    11     4    11    1
    12    20    19    1
    13    19    13    1
    14    18    17    1
    15    17    12    1
    16    11    12   ar
    17    11    15   ar
    18    12    13   ar
    19    13    14   ar
    20    15    14   ar
    21    14    16    1
