@<TRIPOS>MOLECULE
mol_data/noopt/geoms/mol2/5fg.out
 11 11 0 0 0
SMALL
GASTEIGER

@<TRIPOS>ATOM
      1 C          -2.0792   -1.7080   -0.0002 C.ar    1  LIG1        0.0183
      2 C          -0.7020   -1.7080   -0.0002 C.ar    1  LIG1        0.1369
      3 C          -0.1766   -0.3757   -0.0002 C.ar    1  LIG1        0.0533
      4 C          -1.1831    0.5643    0.0006 C.ar    1  LIG1       -0.0075
      5 S          -2.6937   -0.1528    0.0006 S.2     1  LIG1       -0.1002
      6 H          -2.8374   -2.7640   -0.0008 H       1  LIG1        0.0730
      7 H          -1.0166    1.8536    0.0014 H       1  LIG1        0.0705
      8 O           0.0503   -2.7682   -0.0004 O.3     1  LIG1       -0.5051
      9 H           0.9738   -2.5059   -0.0004 H       1  LIG1        0.2922
     10 S           1.0968   -0.1143   -0.0009 S.3     1  LIG1       -0.1386
     11 H           1.2768    1.1833   -0.0011 H       1  LIG1        0.1072
@<TRIPOS>BOND
     1    11    10    1
     2    10     3    1
     3     6     1    1
     4     9     8    1
     5     8     2    1
     6     1     2   ar
     7     1     5   ar
     8     2     3   ar
     9     3     4   ar
    10     4     5   ar
    11     4     7    1
