@<TRIPOS>MOLECULE
mol_data/noopt/geoms/mol2/5fg5fg5fg.out
 29 29 0 0 0
SMALL
GASTEIGER

@<TRIPOS>ATOM
      1 C          -2.0792   -1.7080   -0.0002 C.2     1  LIG1        0.0189
      2 C          -0.7020   -1.7080   -0.0002 C.2     1  LIG1        0.1386
      3 C          -0.1766   -0.3757   -0.0002 C.2     1  LIG1        0.0753
      4 C          -1.1831    0.5643    0.0006 C.2     1  LIG1        0.0404
      5 S          -2.6937   -0.1528    0.0006 S.3     1  LIG1       -0.0916
      6 H          -2.8374   -2.7640   -0.0008 H       1  LIG1        0.0731
      7 O           0.0503   -2.7682   -0.0004 O.2     1  LIG1       -0.5051
      8 H           0.9738   -2.5059   -0.0004 H       1  LIG1        0.2922
      9 S           1.0968   -0.1143   -0.0009 S.2     1  LIG1       -0.0470
     10 H           1.2768    1.1833   -0.0011 H       0  HOH0        0.2052
     11 C          -1.0166    1.8536    0.0014 C.2     1  LIG1        0.0148
     12 C           0.1956    2.5069    0.0205 C.3     1  LIG1        0.0633
     13 C           0.0262    3.9290    0.0147 C.2     1  LIG1        0.0109
     14 C          -1.3056    4.2790   -0.0075 C.3     1  LIG1        0.1046
     15 S          -2.2951    2.9311   -0.0215 S.3     1  LIG1       -0.1083
     16 O           1.3607    1.9305    0.0410 O.3     2  HOH2       -0.4105
     17 H           2.0491    2.5995    0.0461 H       0  HOH0        0.2052
     18 S           1.0231    4.7632    0.0291 S.2     1  LIG1       -0.0584
     19 H           0.5659    5.9908    0.0339 H       0  HOH0        0.2052
     20 C          -1.7706    5.4930   -0.0170 C.ar    1  LIG1        0.0216
     21 C          -1.0132    6.6432   -0.0232 C.ar    1  LIG1        0.0091
     22 C          -1.8369    7.8147   -0.0340 C.ar    1  LIG1        0.0199
     23 C          -3.1756    7.4910   -0.0345 C.ar    1  LIG1       -0.0102
     24 S          -3.4074    5.8350   -0.0232 S.2     1  LIG1       -0.0981
     25 H          -4.1608    8.3391   -0.0426 H       1  LIG1        0.0704
     26 O           0.2861    6.6885   -0.0202 O.3     3  HOH3       -0.4105
     27 H           0.5748    7.6040   -0.0194 H       0  HOH0        0.2052
     28 S          -1.3549    9.0219   -0.0421 S.3     1  LIG1       -0.1415
     29 H          -2.3396    9.8859   -0.0448 H       1  LIG1        0.1071
@<TRIPOS>BOND
     1    29    28    1
     2    25    23    1
     3    28    22    1
     4    23    22   ar
     5    23    24   ar
     6    22    21   ar
     7    21    20   ar
     8    24    20   ar
     9    15    14    1
    10    15    11    2
    11    26    27    1
    12    26    19    1
    13    20    14    1
    14    14    13    1
    15    10    16    1
    16     9     3    2
    17     6     1    1
    18     8     7    1
    19     7     2    1
    20     2     3    1
    21     2     1    2
    22     3     4    1
    23     1     5    1
    24     5     4    2
    25     4    11    1
    26    11    12    1
    27    13    12    1
    28    13    18    2
    29    16    17    1
