@<TRIPOS>MOLECULE
mol_data/noopt/geoms/mol2/5fg5fg-5fg-.out
 29 29 0 0 0
SMALL
GASTEIGER

@<TRIPOS>ATOM
      1 C          -2.0792   -1.7080   -0.0002 C.2     1  LIG1        0.0189
      2 C          -0.7020   -1.7080   -0.0002 C.2     1  LIG1        0.1386
      3 C          -0.1766   -0.3757   -0.0002 C.2     1  LIG1        0.0753
      4 C          -1.1831    0.5643    0.0006 C.2     1  LIG1        0.0407
      5 S          -2.6937   -0.1528    0.0006 S.3     1  LIG1       -0.0916
      6 H          -2.8374   -2.7640   -0.0008 H       1  LIG1        0.0731
      7 O           0.0503   -2.7682   -0.0004 O.2     1  LIG1       -0.5051
      8 H           0.9738   -2.5059   -0.0004 H       1  LIG1        0.2922
      9 S           1.0968   -0.1143   -0.0009 S.2     1  LIG1       -0.0470
     10 H           1.2768    1.1833   -0.0011 H       0  HOH0        0.2052
     11 C          -1.0166    1.8536    0.0014 C.2     1  LIG1        0.0188
     12 C           0.1958    2.5069    0.0015 C.3     1  LIG1        0.0673
     13 C           0.0263    3.9290    0.0017 C.2     1  LIG1        0.0248
     14 C          -1.3057    4.2790    0.0026 C.2     1  LIG1        0.0379
     15 S          -2.2953    2.9311    0.0023 S.3     1  LIG1       -0.0897
     16 O           1.3610    1.9305    0.0013 O.3     2  HOH2       -0.4105
     17 H           2.0495    2.5995    0.0012 H       0  HOH0        0.2052
     18 S           1.0233    4.7632    0.0012 S.2     1  LIG1       -0.0545
     19 H           0.5662    5.9909    0.0010 H       0  HOH0        0.2052
     20 C          -1.7708    5.4930    0.0035 C.ar    1  LIG1        0.0355
     21 C          -1.0136    6.6432    0.0227 C.ar    1  LIG1        0.0127
     22 C          -1.8374    7.8147    0.0172 C.ar    1  LIG1        0.0202
     23 C          -3.1758    7.4910   -0.0051 C.ar    1  LIG1       -0.0099
     24 S          -3.4074    5.8351   -0.0192 S.2     1  LIG1       -0.0944
     25 H          -4.1610    8.3391   -0.0144 H       1  LIG1        0.0705
     26 O           0.2855    6.6885    0.0432 O.3     3  HOH3       -0.4105
     27 H           0.5742    7.6040    0.0482 H       0  HOH0        0.2052
     28 S          -1.3555    9.0220    0.0317 S.3     1  LIG1       -0.1415
     29 H          -2.3403    9.8858    0.0366 H       1  LIG1        0.1071
@<TRIPOS>BOND
     1    24    23   ar
     2    24    20   ar
     3    25    23    1
     4    23    22   ar
     5    10    16    1
     6     9     3    2
     7     6     1    1
     8     8     7    1
     9     7     2    1
    10     2     3    1
    11     2     1    2
    12     3     4    1
    13     1     5    1
    14     4     5    1
    15     4    11    2
    16    19    26    1
    17    18    13    2
    18    17    16    1
    19    11    12    1
    20    11    15    1
    21    12    13    1
    22    13    14    1
    23    15    14    2
    24    14    20    1
    25    20    21   ar
    26    22    21   ar
    27    22    28    1
    28    28    29    1
    29    26    27    1
