@<TRIPOS>MOLECULE
mol_data/noopt/geoms/mol2/5fg5fg-5fg-5fg.out
 38 38 0 0 0
SMALL
GASTEIGER

@<TRIPOS>ATOM
      1 C          -2.0792   -1.7080   -0.0002 C.2     1  LIG1        0.0189
      2 C          -0.7020   -1.7080   -0.0002 C.2     1  LIG1        0.1386
      3 C          -0.1766   -0.3757   -0.0002 C.2     1  LIG1        0.0756
      4 C          -1.1831    0.5643    0.0006 C.2     1  LIG1        0.0443
      5 S          -2.6937   -0.1528    0.0006 S.3     1  LIG1       -0.0912
      6 H          -2.8374   -2.7640   -0.0008 H       1  LIG1        0.0731
      7 O           0.0503   -2.7682   -0.0004 O.2     1  LIG1       -0.5051
      8 H           0.9738   -2.5059   -0.0004 H       1  LIG1        0.2922
      9 S           1.0968   -0.1143   -0.0009 S.2     1  LIG1       -0.0470
     10 H           1.2768    1.1833   -0.0011 H       0  HOH0        0.2052
     11 C          -1.0166    1.8536    0.0014 C.2     1  LIG1        0.0366
     12 C           0.1958    2.5069    0.0015 C.2     1  LIG1        0.0145
     13 C           0.0263    3.9290    0.0017 C.2     1  LIG1        0.0423
     14 C          -1.3057    4.2790    0.0026 C.2     1  LIG1        0.0379
     15 S          -2.2953    2.9311    0.0023 S.3     1  LIG1       -0.0857
     16 O           1.3610    1.9305    0.0013 O.3     2  HOH2       -0.4105
     17 H           2.0495    2.5995    0.0012 H       0  HOH0        0.2052
     18 S           1.0233    4.7632    0.0012 S.2     1  LIG1       -0.0502
     19 H           0.5662    5.9909    0.0010 H       0  HOH0        0.2052
     20 C          -1.7708    5.4930    0.0035 C.2     1  LIG1        0.0147
     21 C          -1.0136    6.6432    0.0227 C.3     1  LIG1        0.0633
     22 C          -1.8374    7.8147    0.0172 C.2     1  LIG1        0.0109
     23 C          -3.1758    7.4910   -0.0051 C.3     1  LIG1        0.1046
     24 S          -3.4074    5.8351   -0.0192 S.3     1  LIG1       -0.1083
     25 O           0.2855    6.6885    0.0432 O.3     3  HOH3       -0.4105
     26 H           0.5742    7.6040    0.0482 H       0  HOH0        0.2052
     27 S          -1.3555    9.0220    0.0317 S.2     1  LIG1       -0.0584
     28 H          -2.3403    9.8858    0.0366 H       0  HOH0        0.2052
     29 C          -4.1610    8.3391   -0.0144 C.ar    1  LIG1        0.0216
     30 C          -4.0401    9.7110   -0.0016 C.ar    1  LIG1        0.0091
     31 C          -5.3209   10.3515   -0.0181 C.ar    1  LIG1        0.0199
     32 C          -6.3455    9.4316   -0.0417 C.ar    1  LIG1       -0.0102
     33 S          -5.7639    7.8638   -0.0443 S.2     1  LIG1       -0.0981
     34 H          -7.6151    9.7108   -0.0601 H       1  LIG1        0.0704
     35 O          -2.9180   10.3671    0.0222 O.3     4  HOH4       -0.4105
     36 H          -3.0983   11.3100    0.0281 H       0  HOH0        0.2052
     37 S          -5.4695   11.6429   -0.0111 S.3     1  LIG1       -0.1415
     38 H          -6.7462   11.9362   -0.0088 H       1  LIG1        0.1071
@<TRIPOS>BOND
     1    34    32    1
     2    33    32   ar
     3    33    29   ar
     4    32    31   ar
     5    24    23    1
     6    24    20    2
     7    31    37    1
     8    31    30   ar
     9    29    23    1
    10    29    30   ar
    11    37    38    1
    12    23    22    1
    13    10    16    1
    14     9     3    2
    15     6     1    1
    16     8     7    1
    17     7     2    1
    18     1     2    2
    19     1     5    1
    20     2     3    1
    21     3     4    1
    22     4     5    2
    23     4    11    1
    24    19    25    1
    25    18    13    2
    26    17    16    1
    27    11    12    2
    28    11    15    1
    29    12    13    1
    30    13    14    1
    31    15    14    2
    32    14    20    1
    33    20    21    1
    34    22    21    1
    35    22    27    2
    36    35    36    1
    37    35    28    1
    38    25    26    1
