@<TRIPOS>MOLECULE
mol_data/noopt/geoms/mol2/5fg5fg-5fg5fg-.out
 38 38 0 0 0
SMALL
GASTEIGER

@<TRIPOS>ATOM
      1 C          -2.0792   -1.7080   -0.0002 C.2     1  LIG1        0.0189
      2 C          -0.7020   -1.7080   -0.0002 C.2     1  LIG1        0.1386
      3 C          -0.1766   -0.3757   -0.0002 C.2     1  LIG1        0.0756
      4 C          -1.1831    0.5643    0.0006 C.2     1  LIG1        0.0443
      5 S          -2.6937   -0.1528    0.0006 S.3     1  LIG1       -0.0912
      6 H          -2.8374   -2.7640   -0.0008 H       1  LIG1        0.0731
      7 O           0.0503   -2.7682   -0.0004 O.2     1  LIG1       -0.5051
      8 H           0.9738   -2.5059   -0.0004 H       1  LIG1        0.2922
      9 S           1.0968   -0.1143   -0.0009 S.2     1  LIG1       -0.0470
     10 H           1.2768    1.1833   -0.0011 H       0  HOH0        0.2052
     11 C          -1.0166    1.8536    0.0014 C.2     1  LIG1        0.0366
     12 C           0.1958    2.5069    0.0015 C.2     1  LIG1        0.0145
     13 C           0.0263    3.9290    0.0017 C.2     1  LIG1        0.0423
     14 C          -1.3057    4.2790    0.0026 C.2     1  LIG1        0.0379
     15 S          -2.2953    2.9311    0.0023 S.3     1  LIG1       -0.0857
     16 O           1.3610    1.9305    0.0013 O.3     2  HOH2       -0.4105
     17 H           2.0495    2.5995    0.0012 H       0  HOH0        0.2052
     18 S           1.0233    4.7632    0.0012 S.2     1  LIG1       -0.0502
     19 H           0.5662    5.9909    0.0010 H       0  HOH0        0.2052
     20 C          -1.7708    5.4930    0.0035 C.2     1  LIG1        0.0147
     21 C          -1.0134    6.6433    0.0038 C.3     1  LIG1        0.0633
     22 C          -1.8373    7.8147    0.0042 C.2     1  LIG1        0.0109
     23 C          -3.1759    7.4910    0.0050 C.3     1  LIG1        0.1046
     24 S          -3.4076    5.8350    0.0046 S.3     1  LIG1       -0.1083
     25 O           0.2858    6.6886    0.0035 O.3     3  HOH3       -0.4105
     26 H           0.5745    7.6042    0.0034 H       0  HOH0        0.2052
     27 S          -1.3553    9.0221    0.0038 S.2     1  LIG1       -0.0584
     28 H          -2.3401    9.8860    0.0036 H       0  HOH0        0.2052
     29 C          -4.1612    8.3391    0.0062 C.ar    1  LIG1        0.0216
     30 C          -4.0401    9.7109    0.0065 C.ar    1  LIG1        0.0091
     31 C          -5.3211   10.3514    0.0071 C.ar    1  LIG1        0.0199
     32 C          -6.3459    9.4314    0.0079 C.ar    1  LIG1       -0.0102
     33 S          -5.7643    7.8636    0.0073 S.2     1  LIG1       -0.0981
     34 H          -7.6156    9.7105    0.0092 H       1  LIG1        0.0704
     35 O          -2.9179   10.3672    0.0061 O.3     4  HOH4       -0.4105
     36 H          -3.0981   11.3101    0.0060 H       0  HOH0        0.2052
     37 S          -5.4696   11.6428    0.0067 S.3     1  LIG1       -0.1415
     38 H          -6.7463   11.9362    0.0066 H       1  LIG1        0.1071
@<TRIPOS>BOND
     1    10    16    1
     2     9     3    2
     3     6     1    1
     4     8     7    1
     5     7     2    1
     6     2     3    1
     7     2     1    2
     8     3     4    1
     9     1     5    1
    10     4     5    2
    11     4    11    1
    12    19    25    1
    13    18    13    2
    14    17    16    1
    15    11    12    2
    16    11    15    1
    17    12    13    1
    18    13    14    1
    19    15    14    2
    20    14    20    1
    21    26    25    1
    22    20    21    1
    23    20    24    2
    24    28    35    1
    25    27    22    2
    26    21    22    1
    27    22    23    1
    28    24    23    1
    29    23    29    1
    30    36    35    1
    31    29    30   ar
    32    29    33   ar
    33    30    31   ar
    34    38    37    1
    35    37    31    1
    36    31    32   ar
    37    33    32   ar
    38    32    34    1
