@<TRIPOS>MOLECULE
mol_data/noopt/geoms/mol2/5fg5fg5fg5fg-.out
 38 38 0 0 0
SMALL
GASTEIGER

@<TRIPOS>ATOM
      1 C          -2.0792   -1.7080   -0.0002 C.2     1  LIG1        0.0189
      2 C          -0.7020   -1.7080   -0.0002 C.2     1  LIG1        0.1386
      3 C          -0.1766   -0.3757   -0.0002 C.2     1  LIG1        0.0753
      4 C          -1.1831    0.5643    0.0006 C.2     1  LIG1        0.0407
      5 S          -2.6937   -0.1528    0.0006 S.3     1  LIG1       -0.0916
      6 H          -2.8374   -2.7640   -0.0008 H       1  LIG1        0.0731
      7 O           0.0503   -2.7682   -0.0004 O.2     1  LIG1       -0.5051
      8 H           0.9738   -2.5059   -0.0004 H       1  LIG1        0.2922
      9 S           1.0968   -0.1143   -0.0009 S.2     1  LIG1       -0.0470
     10 H           1.2768    1.1833   -0.0011 H       0  HOH0        0.2052
     11 C          -1.0166    1.8536    0.0014 C.2     1  LIG1        0.0188
     12 C           0.1956    2.5069    0.0205 C.3     1  LIG1        0.0673
     13 C           0.0262    3.9290    0.0147 C.2     1  LIG1        0.0245
     14 C          -1.3056    4.2790   -0.0075 C.2     1  LIG1        0.0343
     15 S          -2.2951    2.9311   -0.0215 S.3     1  LIG1       -0.0900
     16 O           1.3607    1.9305    0.0410 O.3     2  HOH2       -0.4105
     17 H           2.0491    2.5995    0.0461 H       0  HOH0        0.2052
     18 S           1.0231    4.7632    0.0291 S.2     1  LIG1       -0.0545
     19 H           0.5659    5.9908    0.0339 H       0  HOH0        0.2052
     20 C          -1.7706    5.4930   -0.0170 C.2     1  LIG1        0.0184
     21 C          -1.0132    6.6432   -0.0232 C.3     1  LIG1        0.0673
     22 C          -1.8369    7.8147   -0.0340 C.2     1  LIG1        0.0248
     23 C          -3.1756    7.4910   -0.0345 C.2     1  LIG1        0.0379
     24 S          -3.4074    5.8350   -0.0232 S.3     1  LIG1       -0.0897
     25 O           0.2861    6.6885   -0.0202 O.3     3  HOH3       -0.4105
     26 H           0.5748    7.6040   -0.0194 H       0  HOH0        0.2052
     27 S          -1.3549    9.0219   -0.0421 S.2     1  LIG1       -0.0545
     28 H          -2.3396    9.8859   -0.0448 H       0  HOH0        0.2052
     29 C          -4.1608    8.3391   -0.0426 C.ar    1  LIG1        0.0355
     30 C          -4.0397    9.7110   -0.0479 C.ar    1  LIG1        0.0127
     31 C          -5.3206   10.3514   -0.0572 C.ar    1  LIG1        0.0202
     32 C          -6.3455    9.4315   -0.0576 C.ar    1  LIG1       -0.0099
     33 S          -5.7640    7.8637   -0.0478 S.2     1  LIG1       -0.0944
     34 H          -7.6151    9.7107   -0.0644 H       1  LIG1        0.0705
     35 O          -2.9174   10.3672   -0.0453 O.3     4  HOH4       -0.4105
     36 H          -3.0976   11.3101   -0.0447 H       0  HOH0        0.2052
     37 S          -5.4690   11.6429   -0.0642 S.3     1  LIG1       -0.1415
     38 H          -6.7457   11.9363   -0.0666 H       1  LIG1        0.1071
@<TRIPOS>BOND
     1    38    37    1
     2    34    32    1
     3    37    31    1
     4    32    31   ar
     5    32    33   ar
     6    31    30   ar
     7    30    29   ar
     8    33    29   ar
     9    35    28    1
    10    35    36    1
    11    29    23    1
    12    27    22    2
    13    23    22    1
    14    23    24    2
    15    22    21    1
    16    21    20    1
    17    24    20    1
    18    15    14    1
    19    15    11    2
    20    25    26    1
    21    25    19    1
    22    20    14    2
    23    14    13    1
    24    10    16    1
    25     9     3    2
    26     6     1    1
    27     8     7    1
    28     7     2    1
    29     2     1    2
    30     2     3    1
    31     1     5    1
    32     3     4    1
    33     5     4    2
    34     4    11    1
    35    11    12    1
    36    13    12    1
    37    13    18    2
    38    16    17    1
