@<TRIPOS>MOLECULE
mol_data/noopt/geoms/mol2/5fg5fg5fg-.out
 29 29 0 0 0
SMALL
GASTEIGER

@<TRIPOS>ATOM
      1 C          -2.0792   -1.7080   -0.0002 C.2     1  LIG1        0.0189
      2 C          -0.7020   -1.7080   -0.0002 C.2     1  LIG1        0.1386
      3 C          -0.1766   -0.3757   -0.0002 C.2     1  LIG1        0.0753
      4 C          -1.1831    0.5643    0.0006 C.2     1  LIG1        0.0404
      5 S          -2.6937   -0.1528    0.0006 S.3     1  LIG1       -0.0916
      6 H          -2.8374   -2.7640   -0.0008 H       1  LIG1        0.0731
      7 O           0.0503   -2.7682   -0.0004 O.2     1  LIG1       -0.5051
      8 H           0.9738   -2.5059   -0.0004 H       1  LIG1        0.2922
      9 S           1.0968   -0.1143   -0.0009 S.2     1  LIG1       -0.0470
     10 H           1.2768    1.1833   -0.0011 H       0  HOH0        0.2052
     11 C          -1.0166    1.8536    0.0014 C.2     1  LIG1        0.0148
     12 C           0.1956    2.5069    0.0205 C.3     1  LIG1        0.0633
     13 C           0.0262    3.9290    0.0147 C.2     1  LIG1        0.0109
     14 C          -1.3056    4.2790   -0.0075 C.3     1  LIG1        0.1046
     15 S          -2.2951    2.9311   -0.0215 S.3     1  LIG1       -0.1083
     16 O           1.3607    1.9305    0.0410 O.3     2  HOH2       -0.4105
     17 H           2.0491    2.5995    0.0461 H       0  HOH0        0.2052
     18 S           1.0231    4.7632    0.0291 S.2     1  LIG1       -0.0584
     19 H           0.5659    5.9908    0.0339 H       0  HOH0        0.2052
     20 C          -1.7706    5.4930   -0.0170 C.ar    1  LIG1        0.0216
     21 C          -1.0134    6.6433   -0.0043 C.ar    1  LIG1        0.0091
     22 C          -1.8371    7.8147   -0.0210 C.ar    1  LIG1        0.0199
     23 C          -3.1754    7.4910   -0.0446 C.ar    1  LIG1       -0.0102
     24 S          -3.4072    5.8350   -0.0470 S.2     1  LIG1       -0.0981
     25 H          -4.1606    8.3390   -0.0631 H       1  LIG1        0.0704
     26 O           0.2857    6.6886    0.0196 O.3     3  HOH3       -0.4105
     27 H           0.5743    7.6042    0.0255 H       0  HOH0        0.2052
     28 S          -1.3552    9.0221   -0.0141 S.3     1  LIG1       -0.1415
     29 H          -2.3400    9.8859   -0.0118 H       1  LIG1        0.1071
@<TRIPOS>BOND
     1    25    23    1
     2    24    23   ar
     3    24    20   ar
     4    23    22   ar
     5    15    14    1
     6    15    11    2
     7    22    28    1
     8    22    21   ar
     9    20    14    1
    10    20    21   ar
    11    28    29    1
    12    14    13    1
    13    10    16    1
    14     9     3    2
    15     6     1    1
    16     8     7    1
    17     7     2    1
    18     1     2    2
    19     1     5    1
    20     2     3    1
    21     3     4    1
    22     5     4    2
    23     4    11    1
    24    11    12    1
    25    13    12    1
    26    13    18    2
    27    26    27    1
    28    26    19    1
    29    16    17    1
