@<TRIPOS>MOLECULE
mol_data/noopt/geoms/mol2/5fg5fg-5fg-5fg-.out
 38 38 0 0 0
SMALL
GASTEIGER

@<TRIPOS>ATOM
      1 C          -2.0792   -1.7080   -0.0002 C.2     1  LIG1        0.0189
      2 C          -0.7020   -1.7080   -0.0002 C.2     1  LIG1        0.1386
      3 C          -0.1766   -0.3757   -0.0002 C.2     1  LIG1        0.0756
      4 C          -1.1831    0.5643    0.0006 C.2     1  LIG1        0.0443
      5 S          -2.6937   -0.1528    0.0006 S.3     1  LIG1       -0.0912
      6 H          -2.8374   -2.7640   -0.0008 H       1  LIG1        0.0731
      7 O           0.0503   -2.7682   -0.0004 O.2     1  LIG1       -0.5051
      8 H           0.9738   -2.5059   -0.0004 H       1  LIG1        0.2922
      9 S           1.0968   -0.1143   -0.0009 S.2     1  LIG1       -0.0470
     10 H           1.2768    1.1833   -0.0011 H       0  HOH0        0.2052
     11 C          -1.0166    1.8536    0.0014 C.2     1  LIG1        0.0366
     12 C           0.1958    2.5069    0.0015 C.2     1  LIG1        0.0145
     13 C           0.0263    3.9290    0.0017 C.2     1  LIG1        0.0423
     14 C          -1.3057    4.2790    0.0026 C.2     1  LIG1        0.0379
     15 S          -2.2953    2.9311    0.0023 S.3     1  LIG1       -0.0857
     16 O           1.3610    1.9305    0.0013 O.3     2  HOH2       -0.4105
     17 H           2.0495    2.5995    0.0012 H       0  HOH0        0.2052
     18 S           1.0233    4.7632    0.0012 S.2     1  LIG1       -0.0502
     19 H           0.5662    5.9909    0.0010 H       0  HOH0        0.2052
     20 C          -1.7708    5.4930    0.0035 C.2     1  LIG1        0.0147
     21 C          -1.0136    6.6432    0.0227 C.3     1  LIG1        0.0633
     22 C          -1.8374    7.8147    0.0172 C.2     1  LIG1        0.0109
     23 C          -3.1758    7.4910   -0.0051 C.3     1  LIG1        0.1046
     24 S          -3.4074    5.8351   -0.0192 S.3     1  LIG1       -0.1083
     25 O           0.2855    6.6885    0.0432 O.3     3  HOH3       -0.4105
     26 H           0.5742    7.6040    0.0482 H       0  HOH0        0.2052
     27 S          -1.3555    9.0220    0.0317 S.2     1  LIG1       -0.0584
     28 H          -2.3403    9.8858    0.0366 H       0  HOH0        0.2052
     29 C          -4.1610    8.3391   -0.0144 C.ar    1  LIG1        0.0216
     30 C          -4.0399    9.7110   -0.0205 C.ar    1  LIG1        0.0091
     31 C          -5.3208   10.3515   -0.0311 C.ar    1  LIG1        0.0199
     32 C          -6.3457    9.4315   -0.0316 C.ar    1  LIG1       -0.0102
     33 S          -5.7642    7.8638   -0.0205 S.2     1  LIG1       -0.0981
     34 H          -7.6153    9.7107   -0.0396 H       1  LIG1        0.0704
     35 O          -2.9176   10.3672   -0.0175 O.3     4  HOH4       -0.4105
     36 H          -3.0978   11.3101   -0.0167 H       0  HOH0        0.2052
     37 S          -5.4692   11.6429   -0.0391 S.3     1  LIG1       -0.1415
     38 H          -6.7459   11.9364   -0.0417 H       1  LIG1        0.1071
@<TRIPOS>BOND
     1    38    37    1
     2    34    32    1
     3    37    31    1
     4    32    31   ar
     5    32    33   ar
     6    31    30   ar
     7    30    29   ar
     8    33    29   ar
     9    24    23    1
    10    24    20    2
    11    35    36    1
    12    35    28    1
    13    29    23    1
    14    23    22    1
    15    10    16    1
    16     9     3    2
    17     6     1    1
    18     8     7    1
    19     7     2    1
    20     1     2    2
    21     1     5    1
    22     2     3    1
    23     3     4    1
    24     4     5    2
    25     4    11    1
    26    19    25    1
    27    18    13    2
    28    17    16    1
    29    11    12    2
    30    11    15    1
    31    12    13    1
    32    13    14    1
    33    15    14    2
    34    14    20    1
    35    20    21    1
    36    22    21    1
    37    22    27    2
    38    25    26    1
