@<TRIPOS>MOLECULE
mol_data/noopt/geoms/mol2/5fg5fg5fg-5fg.out
 38 38 0 0 0
SMALL
GASTEIGER

@<TRIPOS>ATOM
      1 C          -2.0792   -1.7080   -0.0002 C.2     1  LIG1        0.0189
      2 C          -0.7020   -1.7080   -0.0002 C.2     1  LIG1        0.1386
      3 C          -0.1766   -0.3757   -0.0002 C.2     1  LIG1        0.0753
      4 C          -1.1831    0.5643    0.0006 C.2     1  LIG1        0.0407
      5 S          -2.6937   -0.1528    0.0006 S.3     1  LIG1       -0.0916
      6 H          -2.8374   -2.7640   -0.0008 H       1  LIG1        0.0731
      7 O           0.0503   -2.7682   -0.0004 O.2     1  LIG1       -0.5051
      8 H           0.9738   -2.5059   -0.0004 H       1  LIG1        0.2922
      9 S           1.0968   -0.1143   -0.0009 S.2     1  LIG1       -0.0470
     10 H           1.2768    1.1833   -0.0011 H       0  HOH0        0.2052
     11 C          -1.0166    1.8536    0.0014 C.2     1  LIG1        0.0188
     12 C           0.1956    2.5069    0.0205 C.3     1  LIG1        0.0673
     13 C           0.0262    3.9290    0.0147 C.2     1  LIG1        0.0245
     14 C          -1.3056    4.2790   -0.0075 C.2     1  LIG1        0.0343
     15 S          -2.2951    2.9311   -0.0215 S.3     1  LIG1       -0.0900
     16 O           1.3607    1.9305    0.0410 O.3     2  HOH2       -0.4105
     17 H           2.0491    2.5995    0.0461 H       0  HOH0        0.2052
     18 S           1.0231    4.7632    0.0291 S.2     1  LIG1       -0.0545
     19 H           0.5659    5.9908    0.0339 H       0  HOH0        0.2052
     20 C          -1.7706    5.4930   -0.0170 C.2     1  LIG1        0.0184
     21 C          -1.0134    6.6433   -0.0043 C.3     1  LIG1        0.0673
     22 C          -1.8371    7.8147   -0.0210 C.2     1  LIG1        0.0248
     23 C          -3.1754    7.4910   -0.0446 C.2     1  LIG1        0.0379
     24 S          -3.4072    5.8350   -0.0470 S.3     1  LIG1       -0.0897
     25 O           0.2857    6.6886    0.0196 O.3     3  HOH3       -0.4105
     26 H           0.5743    7.6042    0.0255 H       0  HOH0        0.2052
     27 S          -1.3552    9.0221   -0.0141 S.2     1  LIG1       -0.0545
     28 H          -2.3400    9.8859   -0.0118 H       0  HOH0        0.2052
     29 C          -4.1606    8.3390   -0.0631 C.ar    1  LIG1        0.0355
     30 C          -4.0397    9.7109   -0.0560 C.ar    1  LIG1        0.0127
     31 C          -5.3204   10.3513   -0.0823 C.ar    1  LIG1        0.0202
     32 C          -6.3449    9.4313   -0.1072 C.ar    1  LIG1       -0.0099
     33 S          -5.7633    7.8636   -0.0994 S.2     1  LIG1       -0.0944
     34 H          -7.6143    9.7105   -0.1337 H       1  LIG1        0.0705
     35 O          -2.9178   10.3672   -0.0292 O.3     4  HOH4       -0.4105
     36 H          -3.0982   11.3100   -0.0226 H       0  HOH0        0.2052
     37 S          -5.4689   11.6428   -0.0821 S.3     1  LIG1       -0.1415
     38 H          -6.7457   11.9361   -0.0821 H       1  LIG1        0.1071
@<TRIPOS>BOND
     1    34    32    1
     2    32    33   ar
     3    32    31   ar
     4    33    29   ar
     5    31    37    1
     6    31    30   ar
     7    37    38    1
     8    29    30   ar
     9    29    23    1
    10    24    23    2
    11    24    20    1
    12    23    22    1
    13    35    36    1
    14    35    28    1
    15    15    14    1
    16    15    11    2
    17    22    27    2
    18    22    21    1
    19    20    14    2
    20    20    21    1
    21    14    13    1
    22    10    16    1
    23     9     3    2
    24     6     1    1
    25     8     7    1
    26     7     2    1
    27     2     3    1
    28     2     1    2
    29     3     4    1
    30     1     5    1
    31     5     4    2
    32     4    11    1
    33    11    12    1
    34    13    12    1
    35    13    18    2
    36    25    26    1
    37    25    19    1
    38    16    17    1
