@<TRIPOS>MOLECULE
mol_data/noopt/geoms/mol2/5fh5fh5fh-.out
 32 34 0 0 0
SMALL
GASTEIGER

@<TRIPOS>ATOM
      1 C          -2.0792   -1.7080   -0.0002 C.ar    1  LIG1        0.0197
      2 C          -0.7020   -1.7080   -0.0002 C.ar    1  LIG1        0.1450
      3 C          -0.1766   -0.3757   -0.0002 C.ar    1  LIG1        0.0822
      4 C          -1.1831    0.5643    0.0006 C.ar    1  LIG1        0.0538
      5 S          -2.6937   -0.1528    0.0006 S.2     1  LIG1       -0.0904
      6 H          -2.8374   -2.7640   -0.0008 H       1  LIG1        0.0731
      7 O           0.0503   -2.7682   -0.0004 O.3     1  LIG1       -0.5044
      8 H           0.9738   -2.5059   -0.0004 H       1  LIG1        0.2922
      9 N           1.0969   -0.1143   -0.0009 N.pl3   1  LIG1       -0.3542
     10 H           1.5873   -0.8472   -0.4725 H       1  LIG1        0.1425
     11 H           1.2590    0.7524   -0.4725 H       1  LIG1        0.1425
     12 C          -1.0166    1.8536    0.0014 C.ar    1  LIG1        0.0716
     13 C           0.1956    2.5069    0.0205 C.ar    1  LIG1        0.1533
     14 C           0.0262    3.9290    0.0147 C.ar    1  LIG1        0.0828
     15 C          -1.3056    4.2790   -0.0075 C.ar    1  LIG1        0.0544
     16 S          -2.2951    2.9311   -0.0215 S.2     1  LIG1       -0.0814
     17 O           1.3607    1.9305    0.0410 O.3     1  LIG1       -0.5037
     18 H           2.0491    2.5995    0.0461 H       1  LIG1        0.2923
     19 N           1.0231    4.7633    0.0291 N.pl3   1  LIG1       -0.3542
     20 H           1.8067    4.3543   -0.4386 H       1  LIG1        0.1425
     21 H           0.7588    5.6066   -0.4386 H       1  LIG1        0.1425
     22 C          -1.7706    5.4930   -0.0170 C.ar    1  LIG1        0.0710
     23 C          -1.0134    6.6433   -0.0043 C.ar    1  LIG1        0.1527
     24 C          -1.8371    7.8147   -0.0210 C.ar    1  LIG1        0.0744
     25 C          -3.1754    7.4910   -0.0446 C.ar    1  LIG1        0.0006
     26 S          -3.4072    5.8350   -0.0470 S.2     1  LIG1       -0.0905
     27 H          -4.1606    8.3390   -0.0631 H       1  LIG1        0.0713
     28 O           0.2857    6.6886    0.0196 O.3     1  LIG1       -0.5038
     29 H           0.5743    7.6042    0.0255 H       1  LIG1        0.2923
     30 N          -1.3551    9.0221   -0.0141 N.pl3   1  LIG1       -0.3547
     31 H          -0.4723    9.0313   -0.4838 H       1  LIG1        0.1424
     32 H          -1.9889    9.6367   -0.4838 H       1  LIG1        0.1424
@<TRIPOS>BOND
     1    32    30    1
     2    31    30    1
     3    11     9    1
     4    10     9    1
     5    21    19    1
     6    20    19    1
     7    27    25    1
     8    26    25   ar
     9    26    22   ar
    10    25    24   ar
    11    16    15   ar
    12    16    12   ar
    13    24    30    1
    14    24    23   ar
    15    22    15    1
    16    22    23   ar
    17    15    14   ar
    18    23    28    1
    19     9     3    1
    20     6     1    1
    21     8     7    1
    22     7     2    1
    23     1     2   ar
    24     1     5   ar
    25     3     2   ar
    26     3     4   ar
    27     5     4   ar
    28     4    12    1
    29    12    13   ar
    30    14    13   ar
    31    14    19    1
    32    28    29    1
    33    13    17    1
    34    17    18    1
