@<TRIPOS>MOLECULE
mol_data/noopt/geoms/mol2/5fh5fh-.out
 22 23 0 0 0
SMALL
GASTEIGER

@<TRIPOS>ATOM
      1 C          -2.0792   -1.7080   -0.0002 C.ar    1  LIG1        0.0197
      2 C          -0.7020   -1.7080   -0.0002 C.ar    1  LIG1        0.1450
      3 C          -0.1766   -0.3757   -0.0002 C.ar    1  LIG1        0.0822
      4 C          -1.1831    0.5643    0.0006 C.ar    1  LIG1        0.0537
      5 S          -2.6937   -0.1528    0.0006 S.2     1  LIG1       -0.0904
      6 H          -2.8374   -2.7640   -0.0008 H       1  LIG1        0.0731
      7 O           0.0503   -2.7682   -0.0004 O.3     1  LIG1       -0.5044
      8 H           0.9738   -2.5059   -0.0004 H       1  LIG1        0.2922
      9 N           1.0969   -0.1143   -0.0009 N.pl3   1  LIG1       -0.3542
     10 H           1.5873   -0.8472   -0.4725 H       1  LIG1        0.1425
     11 H           1.2590    0.7524   -0.4725 H       1  LIG1        0.1425
     12 C          -1.0166    1.8536    0.0014 C.ar    1  LIG1        0.0710
     13 C           0.1958    2.5069    0.0015 C.ar    1  LIG1        0.1527
     14 C           0.0263    3.9290    0.0017 C.ar    1  LIG1        0.0744
     15 C          -1.3057    4.2790    0.0026 C.ar    1  LIG1        0.0006
     16 S          -2.2953    2.9311    0.0023 S.2     1  LIG1       -0.0905
     17 H          -1.7708    5.4930    0.0035 H       1  LIG1        0.0713
     18 O           1.3610    1.9305    0.0013 O.3     1  LIG1       -0.5038
     19 H           2.0495    2.5995    0.0012 H       1  LIG1        0.2923
     20 N           1.0233    4.7632    0.0012 N.pl3   1  LIG1       -0.3547
     21 H           1.8027    4.3508   -0.4704 H       1  LIG1        0.1424
     22 H           0.7549    5.6032   -0.4704 H       1  LIG1        0.1424
@<TRIPOS>BOND
     1    11     9    1
     2    10     9    1
     3    22    20    1
     4    21    20    1
     5     9     3    1
     6     6     1    1
     7     8     7    1
     8     7     2    1
     9     1     2   ar
    10     1     5   ar
    11     3     2   ar
    12     3     4   ar
    13     5     4   ar
    14     4    12    1
    15    20    14    1
    16    19    18    1
    17    18    13    1
    18    12    13   ar
    19    12    16   ar
    20    13    14   ar
    21    14    15   ar
    22    16    15   ar
    23    15    17    1
