@<TRIPOS>MOLECULE
mol_data/noopt/geoms/mol2/5fh5fh-5fh-5fh.out
 42 45 0 0 0
SMALL
GASTEIGER

@<TRIPOS>ATOM
      1 C          -2.0792   -1.7080   -0.0002 C.ar    1  LIG1        0.0197
      2 C          -0.7020   -1.7080   -0.0002 C.ar    1  LIG1        0.1450
      3 C          -0.1766   -0.3757   -0.0002 C.ar    1  LIG1        0.0822
      4 C          -1.1831    0.5643    0.0006 C.ar    1  LIG1        0.0538
      5 S          -2.6937   -0.1528    0.0006 S.2     1  LIG1       -0.0904
      6 H          -2.8374   -2.7640   -0.0008 H       1  LIG1        0.0731
      7 O           0.0503   -2.7682   -0.0004 O.3     1  LIG1       -0.5044
      8 H           0.9738   -2.5059   -0.0004 H       1  LIG1        0.2922
      9 N           1.0969   -0.1143   -0.0009 N.pl3   1  LIG1       -0.3542
     10 H           1.5873   -0.8472   -0.4725 H       1  LIG1        0.1425
     11 H           1.2590    0.7524   -0.4725 H       1  LIG1        0.1425
     12 C          -1.0166    1.8536    0.0014 C.ar    1  LIG1        0.0716
     13 C           0.1958    2.5069    0.0015 C.ar    1  LIG1        0.1533
     14 C           0.0263    3.9290    0.0017 C.ar    1  LIG1        0.0828
     15 C          -1.3057    4.2790    0.0026 C.ar    1  LIG1        0.0544
     16 S          -2.2953    2.9311    0.0023 S.2     1  LIG1       -0.0814
     17 O           1.3610    1.9305    0.0013 O.3     1  LIG1       -0.5037
     18 H           2.0495    2.5995    0.0012 H       1  LIG1        0.2923
     19 N           1.0233    4.7632    0.0012 N.pl3   1  LIG1       -0.3542
     20 H           1.8027    4.3508   -0.4704 H       1  LIG1        0.1425
     21 H           0.7549    5.6032   -0.4704 H       1  LIG1        0.1425
     22 C          -1.7708    5.4930    0.0035 C.ar    1  LIG1        0.0716
     23 C          -1.0136    6.6432    0.0227 C.ar    1  LIG1        0.1533
     24 C          -1.8374    7.8147    0.0172 C.ar    1  LIG1        0.0828
     25 C          -3.1758    7.4910   -0.0051 C.ar    1  LIG1        0.0544
     26 S          -3.4074    5.8351   -0.0192 S.2     1  LIG1       -0.0814
     27 O           0.2855    6.6885    0.0432 O.3     1  LIG1       -0.5037
     28 H           0.5742    7.6040    0.0482 H       1  LIG1        0.2923
     29 N          -1.3555    9.0220    0.0317 N.pl3   1  LIG1       -0.3542
     30 H          -0.4717    9.0338   -0.4360 H       1  LIG1        0.1425
     31 H          -1.9883    9.6391   -0.4360 H       1  LIG1        0.1425
     32 C          -4.1610    8.3391   -0.0144 C.ar    1  LIG1        0.0710
     33 C          -4.0401    9.7110   -0.0016 C.ar    1  LIG1        0.1527
     34 C          -5.3209   10.3515   -0.0181 C.ar    1  LIG1        0.0744
     35 C          -6.3455    9.4316   -0.0417 C.ar    1  LIG1        0.0006
     36 S          -5.7639    7.8638   -0.0443 S.2     1  LIG1       -0.0905
     37 H          -7.6151    9.7108   -0.0601 H       1  LIG1        0.0713
     38 O          -2.9180   10.3671    0.0222 O.3     1  LIG1       -0.5038
     39 H          -3.0983   11.3100    0.0281 H       1  LIG1        0.2923
     40 N          -5.4695   11.6430   -0.0111 N.pl3   1  LIG1       -0.3547
     41 H          -4.6967   12.0699   -0.4808 H       1  LIG1        0.1424
     42 H          -6.3189   11.8833   -0.4808 H       1  LIG1        0.1424
@<TRIPOS>BOND
     1    42    40    1
     2    41    40    1
     3    11     9    1
     4    10     9    1
     5    21    19    1
     6    20    19    1
     7    31    29    1
     8    30    29    1
     9    37    35    1
    10    36    35   ar
    11    36    32   ar
    12    35    34   ar
    13    26    25   ar
    14    26    22   ar
    15    34    40    1
    16    34    33   ar
    17    32    25    1
    18    32    33   ar
    19    25    24   ar
    20    33    38    1
    21     9     3    1
    22     6     1    1
    23     8     7    1
    24     7     2    1
    25     1     2   ar
    26     1     5   ar
    27     2     3   ar
    28     3     4   ar
    29     4     5   ar
    30     4    12    1
    31    19    14    1
    32    18    17    1
    33    17    13    1
    34    12    13   ar
    35    12    16   ar
    36    13    14   ar
    37    14    15   ar
    38    16    15   ar
    39    15    22    1
    40    22    23   ar
    41    24    23   ar
    42    24    29    1
    43    38    39    1
    44    23    27    1
    45    27    28    1
