@<TRIPOS>MOLECULE
mol_data/noopt/geoms/mol2/5fh5fh5fh5fh.out
 42 45 0 0 0
SMALL
GASTEIGER

@<TRIPOS>ATOM
      1 C          -2.0792   -1.7080   -0.0002 C.ar    1  LIG1        0.0197
      2 C          -0.7020   -1.7080   -0.0002 C.ar    1  LIG1        0.1450
      3 C          -0.1766   -0.3757   -0.0002 C.ar    1  LIG1        0.0822
      4 C          -1.1831    0.5643    0.0006 C.ar    1  LIG1        0.0538
      5 S          -2.6937   -0.1528    0.0006 S.2     1  LIG1       -0.0904
      6 H          -2.8374   -2.7640   -0.0008 H       1  LIG1        0.0731
      7 O           0.0503   -2.7682   -0.0004 O.3     1  LIG1       -0.5044
      8 H           0.9738   -2.5059   -0.0004 H       1  LIG1        0.2922
      9 N           1.0969   -0.1143   -0.0009 N.pl3   1  LIG1       -0.3542
     10 H           1.5873   -0.8472   -0.4725 H       1  LIG1        0.1425
     11 H           1.2590    0.7524   -0.4725 H       1  LIG1        0.1425
     12 C          -1.0166    1.8536    0.0014 C.ar    1  LIG1        0.0716
     13 C           0.1956    2.5069    0.0205 C.ar    1  LIG1        0.1533
     14 C           0.0262    3.9290    0.0147 C.ar    1  LIG1        0.0828
     15 C          -1.3056    4.2790   -0.0075 C.ar    1  LIG1        0.0544
     16 S          -2.2951    2.9311   -0.0215 S.2     1  LIG1       -0.0814
     17 O           1.3607    1.9305    0.0410 O.3     1  LIG1       -0.5037
     18 H           2.0491    2.5995    0.0461 H       1  LIG1        0.2923
     19 N           1.0231    4.7633    0.0291 N.pl3   1  LIG1       -0.3542
     20 H           1.8067    4.3543   -0.4386 H       1  LIG1        0.1425
     21 H           0.7588    5.6066   -0.4386 H       1  LIG1        0.1425
     22 C          -1.7706    5.4930   -0.0170 C.ar    1  LIG1        0.0716
     23 C          -1.0132    6.6432   -0.0232 C.ar    1  LIG1        0.1533
     24 C          -1.8369    7.8147   -0.0340 C.ar    1  LIG1        0.0828
     25 C          -3.1756    7.4910   -0.0345 C.ar    1  LIG1        0.0544
     26 S          -3.4074    5.8350   -0.0232 S.2     1  LIG1       -0.0814
     27 O           0.2861    6.6885   -0.0202 O.3     1  LIG1       -0.5037
     28 H           0.5748    7.6040   -0.0194 H       1  LIG1        0.2923
     29 N          -1.3549    9.0220   -0.0421 N.pl3   1  LIG1       -0.3542
     30 H          -0.4741    9.0260   -0.5155 H       1  LIG1        0.1425
     31 H          -1.9906    9.6316   -0.5156 H       1  LIG1        0.1425
     32 C          -4.1608    8.3391   -0.0426 C.ar    1  LIG1        0.0710
     33 C          -4.0399    9.7109   -0.0290 C.ar    1  LIG1        0.1527
     34 C          -5.3207   10.3514   -0.0442 C.ar    1  LIG1        0.0744
     35 C          -6.3454    9.4315   -0.0677 C.ar    1  LIG1        0.0006
     36 S          -5.7637    7.8638   -0.0716 S.2     1  LIG1       -0.0905
     37 H          -7.6149    9.7107   -0.0849 H       1  LIG1        0.0713
     38 O          -2.9178   10.3671   -0.0056 O.3     1  LIG1       -0.5038
     39 H          -3.0981   11.3100    0.0002 H       1  LIG1        0.2923
     40 N          -5.4693   11.6429   -0.0363 N.pl3   1  LIG1       -0.3547
     41 H          -4.6965   12.0702   -0.5057 H       1  LIG1        0.1424
     42 H          -6.3188   11.8836   -0.5057 H       1  LIG1        0.1424
@<TRIPOS>BOND
     1    31    29    1
     2    30    29    1
     3    42    40    1
     4    41    40    1
     5    11     9    1
     6    10     9    1
     7    21    19    1
     8    20    19    1
     9    37    35    1
    10    36    35   ar
    11    36    32   ar
    12    35    34   ar
    13    34    40    1
    14    34    33   ar
    15    32    25    1
    16    32    33   ar
    17    29    24    1
    18    25    24   ar
    19    25    26   ar
    20    24    23   ar
    21    33    38    1
    22    23    27    1
    23    23    22   ar
    24    26    22   ar
    25    16    15   ar
    26    16    12   ar
    27    27    28    1
    28    22    15    1
    29    15    14   ar
    30    38    39    1
    31     9     3    1
    32     6     1    1
    33     8     7    1
    34     7     2    1
    35     2     1   ar
    36     2     3   ar
    37     1     5   ar
    38     3     4   ar
    39     5     4   ar
    40     4    12    1
    41    12    13   ar
    42    14    13   ar
    43    14    19    1
    44    13    17    1
    45    17    18    1
