@<TRIPOS>MOLECULE
mol_data/noopt/geoms/mol2/5fi.out
 13 13 0 0 0
SMALL
GASTEIGER

@<TRIPOS>ATOM
      1 C          -2.0792   -1.7080   -0.0002 C.ar    1  LIG1        0.0174
      2 C          -0.7020   -1.7080   -0.0002 C.ar    1  LIG1        0.1267
      3 C          -0.1766   -0.3757   -0.0002 C.ar    1  LIG1       -0.0020
      4 C          -1.1831    0.5643    0.0006 C.ar    1  LIG1       -0.0179
      5 S          -2.6937   -0.1528    0.0006 S.2     1  LIG1       -0.1011
      6 H          -2.8374   -2.7640   -0.0008 H       1  LIG1        0.0730
      7 H          -1.0166    1.8536    0.0014 H       1  LIG1        0.0697
      8 O           0.0503   -2.7682   -0.0004 O.3     1  LIG1       -0.5060
      9 H           0.9738   -2.5059   -0.0004 H       1  LIG1        0.2922
     10 C           1.0972   -0.1142   -0.0009 C.3     1  LIG1       -0.0357
     11 H           1.2712    0.8133    0.5033 H       1  LIG1        0.0279
     12 H           1.4460   -0.0426   -1.0099 H       1  LIG1        0.0279
     13 H           1.6224   -0.8983    0.5033 H       1  LIG1        0.0279
@<TRIPOS>BOND
     1    12    10    1
     2    10     3    1
     3    10    13    1
     4    10    11    1
     5     6     1    1
     6     9     8    1
     7     8     2    1
     8     1     2   ar
     9     1     5   ar
    10     2     3   ar
    11     3     4   ar
    12     4     5   ar
    13     4     7    1
