@<TRIPOS>MOLECULE
mol_data/noopt/geoms/mol2/5fi5fi.out
 24 25 0 0 0
SMALL
GASTEIGER

@<TRIPOS>ATOM
      1 C          -2.0792   -1.7080   -0.0002 C.ar    1  LIG1        0.0180
      2 C          -0.7020   -1.7080   -0.0002 C.ar    1  LIG1        0.1273
      3 C          -0.1766   -0.3757   -0.0002 C.ar    1  LIG1        0.0064
      4 C          -1.1831    0.5643    0.0006 C.ar    1  LIG1        0.0359
      5 S          -2.6937   -0.1528    0.0006 S.2     1  LIG1       -0.0920
      6 H          -2.8374   -2.7640   -0.0008 H       1  LIG1        0.0730
      7 O           0.0503   -2.7682   -0.0004 O.3     1  LIG1       -0.5060
      8 H           0.9738   -2.5059   -0.0004 H       1  LIG1        0.2922
      9 C           1.0972   -0.1142   -0.0009 C.3     1  LIG1       -0.0351
     10 H           1.2712    0.8133    0.5033 H       1  LIG1        0.0279
     11 H           1.4460   -0.0426   -1.0099 H       1  LIG1        0.0279
     12 H           1.6224   -0.8983    0.5033 H       1  LIG1        0.0279
     13 C          -1.0166    1.8536    0.0014 C.ar    1  LIG1        0.0679
     14 C           0.1956    2.5069    0.0205 C.ar    1  LIG1        0.1350
     15 C           0.0262    3.9290    0.0147 C.ar    1  LIG1       -0.0014
     16 C          -1.3056    4.2790   -0.0075 C.ar    1  LIG1       -0.0172
     17 S          -2.2951    2.9311   -0.0215 S.2     1  LIG1       -0.0921
     18 H          -1.7706    5.4930   -0.0170 H       1  LIG1        0.0697
     19 O           1.3607    1.9305    0.0410 O.3     1  LIG1       -0.5053
     20 H           2.0491    2.5995    0.0461 H       1  LIG1        0.2922
     21 C           1.0233    4.7634    0.0291 C.3     1  LIG1       -0.0357
     22 H           0.7319    5.6588    0.5375 H       1  LIG1        0.0279
     23 H           1.3054    4.9995   -0.9757 H       1  LIG1        0.0279
     24 H           1.8532    4.3187    0.5374 H       1  LIG1        0.0279
@<TRIPOS>BOND
     1    11     9    1
     2    23    21    1
     3    17    16   ar
     4    17    13   ar
     5    18    16    1
     6    16    15   ar
     7     9     3    1
     8     9    12    1
     9     9    10    1
    10     6     1    1
    11     8     7    1
    12     7     2    1
    13     2     3   ar
    14     2     1   ar
    15     3     4   ar
    16     1     5   ar
    17     4     5   ar
    18     4    13    1
    19    13    14   ar
    20    15    14   ar
    21    15    21    1
    22    14    19    1
    23    21    24    1
    24    21    22    1
    25    19    20    1
