@<TRIPOS>MOLECULE
mol_data/noopt/geoms/mol2/5fi5fi5fi5fi.out
 46 49 0 0 0
SMALL
GASTEIGER

@<TRIPOS>ATOM
      1 C          -2.0792   -1.7080   -0.0002 C.ar    1  LIG1        0.0180
      2 C          -0.7020   -1.7080   -0.0002 C.ar    1  LIG1        0.1273
      3 C          -0.1766   -0.3757   -0.0002 C.ar    1  LIG1        0.0064
      4 C          -1.1831    0.5643    0.0006 C.ar    1  LIG1        0.0359
      5 S          -2.6937   -0.1528    0.0006 S.2     1  LIG1       -0.0920
      6 H          -2.8374   -2.7640   -0.0008 H       1  LIG1        0.0730
      7 O           0.0503   -2.7682   -0.0004 O.3     1  LIG1       -0.5060
      8 H           0.9738   -2.5059   -0.0004 H       1  LIG1        0.2922
      9 C           1.0972   -0.1142   -0.0009 C.3     1  LIG1       -0.0351
     10 H           1.2712    0.8133    0.5033 H       1  LIG1        0.0279
     11 H           1.4460   -0.0426   -1.0099 H       1  LIG1        0.0279
     12 H           1.6224   -0.8983    0.5033 H       1  LIG1        0.0279
     13 C          -1.0166    1.8536    0.0014 C.ar    1  LIG1        0.0685
     14 C           0.1956    2.5069    0.0205 C.ar    1  LIG1        0.1356
     15 C           0.0262    3.9290    0.0147 C.ar    1  LIG1        0.0070
     16 C          -1.3056    4.2790   -0.0075 C.ar    1  LIG1        0.0365
     17 S          -2.2951    2.9311   -0.0215 S.2     1  LIG1       -0.0831
     18 O           1.3607    1.9305    0.0410 O.3     1  LIG1       -0.5053
     19 H           2.0491    2.5995    0.0461 H       1  LIG1        0.2922
     20 C           1.0233    4.7634    0.0291 C.3     1  LIG1       -0.0351
     21 H           0.7319    5.6588    0.5375 H       1  LIG1        0.0279
     22 H           1.3054    4.9995   -0.9757 H       1  LIG1        0.0279
     23 H           1.8532    4.3187    0.5374 H       1  LIG1        0.0279
     24 C          -1.7706    5.4930   -0.0170 C.ar    1  LIG1        0.0685
     25 C          -1.0132    6.6432   -0.0232 C.ar    1  LIG1        0.1356
     26 C          -1.8369    7.8147   -0.0340 C.ar    1  LIG1        0.0070
     27 C          -3.1756    7.4910   -0.0345 C.ar    1  LIG1        0.0365
     28 S          -3.4074    5.8350   -0.0232 S.2     1  LIG1       -0.0831
     29 O           0.2861    6.6885   -0.0202 O.3     1  LIG1       -0.5053
     30 H           0.5748    7.6040   -0.0194 H       1  LIG1        0.2922
     31 C          -1.3548    9.0223   -0.0421 C.3     1  LIG1       -0.0351
     32 H          -2.0327    9.6804    0.4601 H       1  LIG1        0.0279
     33 H          -1.2249    9.3477   -1.0531 H       1  LIG1        0.0279
     34 H          -0.4100    9.0324    0.4601 H       1  LIG1        0.0279
     35 C          -4.1608    8.3391   -0.0426 C.ar    1  LIG1        0.0679
     36 C          -4.0399    9.7109   -0.0290 C.ar    1  LIG1        0.1350
     37 C          -5.3207   10.3514   -0.0442 C.ar    1  LIG1       -0.0014
     38 C          -6.3454    9.4315   -0.0677 C.ar    1  LIG1       -0.0172
     39 S          -5.7637    7.8638   -0.0716 S.2     1  LIG1       -0.0921
     40 H          -7.6149    9.7107   -0.0849 H       1  LIG1        0.0697
     41 O          -2.9178   10.3671   -0.0056 O.3     1  LIG1       -0.5053
     42 H          -3.0981   11.3100    0.0002 H       1  LIG1        0.2922
     43 C          -5.4693   11.6432   -0.0363 C.3     1  LIG1       -0.0357
     44 H          -6.3776   11.8947    0.4703 H       1  LIG1        0.0279
     45 H          -5.5108   12.0036   -1.0430 H       1  LIG1        0.0279
     46 H          -4.6417   12.0943    0.4702 H       1  LIG1        0.0279
@<TRIPOS>BOND
     1    33    31    1
     2    45    43    1
     3    11     9    1
     4    22    20    1
     5    40    38    1
     6    39    38   ar
     7    39    35   ar
     8    38    37   ar
     9    37    43    1
    10    37    36   ar
    11    35    27    1
    12    35    36   ar
    13    31    26    1
    14    31    34    1
    15    31    32    1
    16    43    46    1
    17    43    44    1
    18    27    26   ar
    19    27    28   ar
    20    26    25   ar
    21    36    41    1
    22    25    29    1
    23    25    24   ar
    24    28    24   ar
    25    17    16   ar
    26    17    13   ar
    27    29    30    1
    28    24    16    1
    29    16    15   ar
    30    41    42    1
    31     9     3    1
    32     9    12    1
    33     9    10    1
    34     6     1    1
    35     8     7    1
    36     7     2    1
    37     1     2   ar
    38     1     5   ar
    39     2     3   ar
    40     3     4   ar
    41     5     4   ar
    42     4    13    1
    43    13    14   ar
    44    15    14   ar
    45    15    20    1
    46    14    18    1
    47    20    23    1
    48    20    21    1
    49    18    19    1
