@<TRIPOS>MOLECULE
mol_data/noopt/geoms/mol2/5fi5fi-5fi5fi.out
 46 49 0 0 0
SMALL
GASTEIGER

@<TRIPOS>ATOM
      1 C          -2.0792   -1.7080   -0.0002 C.ar    1  LIG1        0.0180
      2 C          -0.7020   -1.7080   -0.0002 C.ar    1  LIG1        0.1273
      3 C          -0.1766   -0.3757   -0.0002 C.ar    1  LIG1        0.0064
      4 C          -1.1831    0.5643    0.0006 C.ar    1  LIG1        0.0359
      5 S          -2.6937   -0.1528    0.0006 S.2     1  LIG1       -0.0920
      6 H          -2.8374   -2.7640   -0.0008 H       1  LIG1        0.0730
      7 O           0.0503   -2.7682   -0.0004 O.3     1  LIG1       -0.5060
      8 H           0.9738   -2.5059   -0.0004 H       1  LIG1        0.2922
      9 C           1.0972   -0.1142   -0.0009 C.3     1  LIG1       -0.0351
     10 H           1.2712    0.8133    0.5033 H       1  LIG1        0.0279
     11 H           1.4460   -0.0426   -1.0099 H       1  LIG1        0.0279
     12 H           1.6224   -0.8983    0.5033 H       1  LIG1        0.0279
     13 C          -1.0166    1.8536    0.0014 C.ar    1  LIG1        0.0685
     14 C           0.1958    2.5069    0.0015 C.ar    1  LIG1        0.1356
     15 C           0.0263    3.9290    0.0017 C.ar    1  LIG1        0.0070
     16 C          -1.3057    4.2790    0.0026 C.ar    1  LIG1        0.0365
     17 S          -2.2953    2.9311    0.0023 S.2     1  LIG1       -0.0831
     18 O           1.3610    1.9305    0.0013 O.3     1  LIG1       -0.5053
     19 H           2.0495    2.5995    0.0012 H       1  LIG1        0.2922
     20 C           1.0235    4.7634    0.0012 C.3     1  LIG1       -0.0351
     21 H           0.7366    5.6625    0.5055 H       1  LIG1        0.0279
     22 H           1.2967    4.9921   -1.0078 H       1  LIG1        0.0279
     23 H           1.8579    4.3223    0.5054 H       1  LIG1        0.0279
     24 C          -1.7708    5.4930    0.0035 C.ar    1  LIG1        0.0685
     25 C          -1.0134    6.6433    0.0038 C.ar    1  LIG1        0.1356
     26 C          -1.8373    7.8147    0.0042 C.ar    1  LIG1        0.0070
     27 C          -3.1759    7.4910    0.0050 C.ar    1  LIG1        0.0365
     28 S          -3.4076    5.8350    0.0046 S.2     1  LIG1       -0.0831
     29 O           0.2858    6.6886    0.0035 O.3     1  LIG1       -0.5053
     30 H           0.5745    7.6042    0.0034 H       1  LIG1        0.2922
     31 C          -1.3552    9.0224    0.0038 C.3     1  LIG1       -0.0351
     32 H          -2.0343    9.6777    0.5081 H       1  LIG1        0.0279
     33 H          -1.2231    9.3534   -1.0052 H       1  LIG1        0.0279
     34 H          -0.4115    9.0299    0.5080 H       1  LIG1        0.0279
     35 C          -4.1612    8.3391    0.0062 C.ar    1  LIG1        0.0679
     36 C          -4.0402    9.7108    0.0254 C.ar    1  LIG1        0.1350
     37 C          -5.3212   10.3513    0.0201 C.ar    1  LIG1       -0.0014
     38 C          -6.3459    9.4314   -0.0022 C.ar    1  LIG1       -0.0172
     39 S          -5.7642    7.8638   -0.0165 S.2     1  LIG1       -0.0921
     40 H          -7.6155    9.7107   -0.0114 H       1  LIG1        0.0697
     41 O          -2.9181   10.3669    0.0458 O.3     1  LIG1       -0.5053
     42 H          -3.0983   11.3098    0.0509 H       1  LIG1        0.2922
     43 C          -5.4698   11.6430    0.0347 C.3     1  LIG1       -0.0357
     44 H          -6.3778   11.8919    0.5431 H       1  LIG1        0.0279
     45 H          -5.5119   12.0086   -0.9701 H       1  LIG1        0.0279
     46 H          -4.6419   12.0915    0.5430 H       1  LIG1        0.0279
@<TRIPOS>BOND
     1    11     9    1
     2    22    20    1
     3    33    31    1
     4    45    43    1
     5    39    38   ar
     6    39    35   ar
     7    40    38    1
     8    38    37   ar
     9     9     3    1
    10     9    12    1
    11     9    10    1
    12     6     1    1
    13     8     7    1
    14     7     2    1
    15     1     2   ar
    16     1     5   ar
    17     3     2   ar
    18     3     4   ar
    19     5     4   ar
    20     4    13    1
    21    20    15    1
    22    20    23    1
    23    20    21    1
    24    19    18    1
    25    18    14    1
    26    13    14   ar
    27    13    17   ar
    28    14    15   ar
    29    15    16   ar
    30    17    16   ar
    31    16    24    1
    32    30    29    1
    33    29    25    1
    34    24    25   ar
    35    24    28   ar
    36    31    26    1
    37    31    34    1
    38    31    32    1
    39    25    26   ar
    40    26    27   ar
    41    28    27   ar
    42    27    35    1
    43    35    36   ar
    44    37    36   ar
    45    37    43    1
    46    36    41    1
    47    43    46    1
    48    43    44    1
    49    41    42    1
