@<TRIPOS>MOLECULE
mol_data/noopt/geoms/mol2/5fi5fi-5fi-5fi-.out
 46 49 0 0 0
SMALL
GASTEIGER

@<TRIPOS>ATOM
      1 C          -2.0792   -1.7080   -0.0002 C.ar    1  LIG1        0.0180
      2 C          -0.7020   -1.7080   -0.0002 C.ar    1  LIG1        0.1273
      3 C          -0.1766   -0.3757   -0.0002 C.ar    1  LIG1        0.0064
      4 C          -1.1831    0.5643    0.0006 C.ar    1  LIG1        0.0359
      5 S          -2.6937   -0.1528    0.0006 S.2     1  LIG1       -0.0920
      6 H          -2.8374   -2.7640   -0.0008 H       1  LIG1        0.0730
      7 O           0.0503   -2.7682   -0.0004 O.3     1  LIG1       -0.5060
      8 H           0.9738   -2.5059   -0.0004 H       1  LIG1        0.2922
      9 C           1.0972   -0.1142   -0.0009 C.3     1  LIG1       -0.0351
     10 H           1.2712    0.8133    0.5033 H       1  LIG1        0.0279
     11 H           1.4460   -0.0426   -1.0099 H       1  LIG1        0.0279
     12 H           1.6224   -0.8983    0.5033 H       1  LIG1        0.0279
     13 C          -1.0166    1.8536    0.0014 C.ar    1  LIG1        0.0685
     14 C           0.1958    2.5069    0.0015 C.ar    1  LIG1        0.1356
     15 C           0.0263    3.9290    0.0017 C.ar    1  LIG1        0.0070
     16 C          -1.3057    4.2790    0.0026 C.ar    1  LIG1        0.0365
     17 S          -2.2953    2.9311    0.0023 S.2     1  LIG1       -0.0831
     18 O           1.3610    1.9305    0.0013 O.3     1  LIG1       -0.5053
     19 H           2.0495    2.5995    0.0012 H       1  LIG1        0.2922
     20 C           1.0235    4.7634    0.0012 C.3     1  LIG1       -0.0351
     21 H           0.7366    5.6625    0.5055 H       1  LIG1        0.0279
     22 H           1.2967    4.9921   -1.0078 H       1  LIG1        0.0279
     23 H           1.8579    4.3223    0.5054 H       1  LIG1        0.0279
     24 C          -1.7708    5.4930    0.0035 C.ar    1  LIG1        0.0685
     25 C          -1.0136    6.6432    0.0227 C.ar    1  LIG1        0.1356
     26 C          -1.8374    7.8147    0.0172 C.ar    1  LIG1        0.0070
     27 C          -3.1758    7.4910   -0.0051 C.ar    1  LIG1        0.0365
     28 S          -3.4074    5.8351   -0.0192 S.2     1  LIG1       -0.0831
     29 O           0.2855    6.6885    0.0432 O.3     1  LIG1       -0.5053
     30 H           0.5742    7.6040    0.0482 H       1  LIG1        0.2922
     31 C          -1.3554    9.0223    0.0317 C.3     1  LIG1       -0.0351
     32 H          -2.0366    9.6722    0.5401 H       1  LIG1        0.0279
     33 H          -1.2191    9.3640   -0.9731 H       1  LIG1        0.0279
     34 H          -0.4138    9.0244    0.5400 H       1  LIG1        0.0279
     35 C          -4.1610    8.3391   -0.0144 C.ar    1  LIG1        0.0679
     36 C          -4.0399    9.7110   -0.0205 C.ar    1  LIG1        0.1350
     37 C          -5.3208   10.3515   -0.0311 C.ar    1  LIG1       -0.0014
     38 C          -6.3457    9.4315   -0.0316 C.ar    1  LIG1       -0.0172
     39 S          -5.7642    7.8638   -0.0205 S.2     1  LIG1       -0.0921
     40 H          -7.6153    9.7107   -0.0396 H       1  LIG1        0.0697
     41 O          -2.9176   10.3672   -0.0175 O.3     1  LIG1       -0.5053
     42 H          -3.0978   11.3101   -0.0167 H       1  LIG1        0.2922
     43 C          -5.4692   11.6433   -0.0391 C.3     1  LIG1       -0.0357
     44 H          -6.3782   11.9010    0.4632 H       1  LIG1        0.0279
     45 H          -5.5093   11.9915   -1.0501 H       1  LIG1        0.0279
     46 H          -4.6423   12.1004    0.4631 H       1  LIG1        0.0279
@<TRIPOS>BOND
     1    45    43    1
     2    11     9    1
     3    22    20    1
     4    33    31    1
     5    40    38    1
     6    43    37    1
     7    43    46    1
     8    43    44    1
     9    38    37   ar
    10    38    39   ar
    11    37    36   ar
    12    36    41    1
    13    36    35   ar
    14    39    35   ar
    15    28    27   ar
    16    28    24   ar
    17    41    42    1
    18    35    27    1
    19    27    26   ar
    20     9     3    1
    21     9    12    1
    22     9    10    1
    23     6     1    1
    24     8     7    1
    25     7     2    1
    26     1     2   ar
    27     1     5   ar
    28     3     2   ar
    29     3     4   ar
    30     5     4   ar
    31     4    13    1
    32    20    15    1
    33    20    23    1
    34    20    21    1
    35    19    18    1
    36    18    14    1
    37    13    14   ar
    38    13    17   ar
    39    14    15   ar
    40    15    16   ar
    41    17    16   ar
    42    16    24    1
    43    24    25   ar
    44    26    25   ar
    45    26    31    1
    46    25    29    1
    47    31    34    1
    48    31    32    1
    49    29    30    1
