@<TRIPOS>MOLECULE
mol_data/noopt/geoms/mol2/5fi5fi-5fi.out
 35 37 0 0 0
SMALL
GASTEIGER

@<TRIPOS>ATOM
      1 C          -2.0792   -1.7080   -0.0002 C.ar    1  LIG1        0.0180
      2 C          -0.7020   -1.7080   -0.0002 C.ar    1  LIG1        0.1273
      3 C          -0.1766   -0.3757   -0.0002 C.ar    1  LIG1        0.0064
      4 C          -1.1831    0.5643    0.0006 C.ar    1  LIG1        0.0359
      5 S          -2.6937   -0.1528    0.0006 S.2     1  LIG1       -0.0920
      6 H          -2.8374   -2.7640   -0.0008 H       1  LIG1        0.0730
      7 O           0.0503   -2.7682   -0.0004 O.3     1  LIG1       -0.5060
      8 H           0.9738   -2.5059   -0.0004 H       1  LIG1        0.2922
      9 C           1.0972   -0.1142   -0.0009 C.3     1  LIG1       -0.0351
     10 H           1.2712    0.8133    0.5033 H       1  LIG1        0.0279
     11 H           1.4460   -0.0426   -1.0099 H       1  LIG1        0.0279
     12 H           1.6224   -0.8983    0.5033 H       1  LIG1        0.0279
     13 C          -1.0166    1.8536    0.0014 C.ar    1  LIG1        0.0685
     14 C           0.1958    2.5069    0.0015 C.ar    1  LIG1        0.1356
     15 C           0.0263    3.9290    0.0017 C.ar    1  LIG1        0.0070
     16 C          -1.3057    4.2790    0.0026 C.ar    1  LIG1        0.0365
     17 S          -2.2953    2.9311    0.0023 S.2     1  LIG1       -0.0831
     18 O           1.3610    1.9305    0.0013 O.3     1  LIG1       -0.5053
     19 H           2.0495    2.5995    0.0012 H       1  LIG1        0.2922
     20 C           1.0235    4.7634    0.0012 C.3     1  LIG1       -0.0351
     21 H           0.7366    5.6625    0.5055 H       1  LIG1        0.0279
     22 H           1.2967    4.9921   -1.0078 H       1  LIG1        0.0279
     23 H           1.8579    4.3223    0.5054 H       1  LIG1        0.0279
     24 C          -1.7708    5.4930    0.0035 C.ar    1  LIG1        0.0679
     25 C          -1.0134    6.6433    0.0038 C.ar    1  LIG1        0.1350
     26 C          -1.8373    7.8147    0.0042 C.ar    1  LIG1       -0.0014
     27 C          -3.1759    7.4910    0.0050 C.ar    1  LIG1       -0.0172
     28 S          -3.4076    5.8350    0.0046 S.2     1  LIG1       -0.0921
     29 H          -4.1612    8.3391    0.0062 H       1  LIG1        0.0697
     30 O           0.2858    6.6886    0.0035 O.3     1  LIG1       -0.5053
     31 H           0.5745    7.6042    0.0034 H       1  LIG1        0.2922
     32 C          -1.3552    9.0224    0.0038 C.3     1  LIG1       -0.0357
     33 H          -2.0343    9.6777    0.5081 H       1  LIG1        0.0279
     34 H          -1.2231    9.3534   -1.0052 H       1  LIG1        0.0279
     35 H          -0.4115    9.0299    0.5080 H       1  LIG1        0.0279
@<TRIPOS>BOND
     1    11     9    1
     2    22    20    1
     3    34    32    1
     4     9     3    1
     5     9    12    1
     6     9    10    1
     7     6     1    1
     8     8     7    1
     9     7     2    1
    10     2     3   ar
    11     2     1   ar
    12     3     4   ar
    13     1     5   ar
    14     4     5   ar
    15     4    13    1
    16    20    15    1
    17    20    23    1
    18    20    21    1
    19    19    18    1
    20    18    14    1
    21    13    14   ar
    22    13    17   ar
    23    14    15   ar
    24    15    16   ar
    25    17    16   ar
    26    16    24    1
    27    31    30    1
    28    30    25    1
    29    24    25   ar
    30    24    28   ar
    31    32    26    1
    32    32    35    1
    33    32    33    1
    34    25    26   ar
    35    26    27   ar
    36    28    27   ar
    37    27    29    1
