@<TRIPOS>MOLECULE
mol_data/noopt/geoms/mol2/5fl5fl-5fl.out
 38 40 0 0 0
SMALL
GASTEIGER

@<TRIPOS>ATOM
      1 C          -2.0792   -1.7080   -0.0002 C.ar    1  LIG1        0.0215
      2 C          -0.7020   -1.7080   -0.0002 C.ar    1  LIG1        0.1663
      3 C          -0.1766   -0.3757   -0.0002 C.ar    1  LIG1        0.1766
      4 C          -1.1831    0.5643    0.0006 C.ar    1  LIG1        0.0749
      5 S          -2.6937   -0.1528    0.0006 S.2     1  LIG1       -0.0885
      6 H          -2.8374   -2.7640   -0.0008 H       1  LIG1        0.0731
      7 O           0.0503   -2.7682   -0.0004 O.3     1  LIG1       -0.5029
      8 H           0.9738   -2.5059   -0.0004 H       1  LIG1        0.2923
      9 O           1.0969   -0.1143   -0.0009 O.3     1  LIG1       -0.4903
     10 C           1.8355   -1.3388   -0.0012 C.3     1  LIG1        0.0790
     11 H           2.8835   -1.1232   -0.0020 H       1  LIG1        0.0660
     12 H           1.5884   -1.9046    0.8727 H       1  LIG1        0.0660
     13 H           1.5872   -1.9049   -0.8746 H       1  LIG1        0.0660
     14 C          -1.0166    1.8536    0.0014 C.ar    1  LIG1        0.0753
     15 C           0.1958    2.5069    0.0015 C.ar    1  LIG1        0.1748
     16 C           0.0263    3.9290    0.0017 C.ar    1  LIG1        0.1773
     17 C          -1.3057    4.2790    0.0026 C.ar    1  LIG1        0.0755
     18 S          -2.2953    2.9311    0.0023 S.2     1  LIG1       -0.0794
     19 O           1.3610    1.9305    0.0013 O.3     1  LIG1       -0.5025
     20 H           2.0495    2.5995    0.0012 H       1  LIG1        0.2923
     21 O           1.0233    4.7633    0.0012 O.3     1  LIG1       -0.4903
     22 C           2.2544    4.0357    0.0009 C.3     1  LIG1        0.0790
     23 H           3.0747    4.7226    0.0003 H       1  LIG1        0.0660
     24 H           2.3052    3.4203    0.8748 H       1  LIG1        0.0660
     25 H           2.3044    3.4196   -0.8725 H       1  LIG1        0.0660
     26 C          -1.7708    5.4930    0.0035 C.ar    1  LIG1        0.0747
     27 C          -1.0134    6.6433    0.0038 C.ar    1  LIG1        0.1742
     28 C          -1.8373    7.8147    0.0042 C.ar    1  LIG1        0.1689
     29 C          -3.1759    7.4910    0.0050 C.ar    1  LIG1        0.0218
     30 S          -3.4076    5.8350    0.0046 S.2     1  LIG1       -0.0885
     31 H          -4.1612    8.3391    0.0062 H       1  LIG1        0.0731
     32 O           0.2858    6.6886    0.0035 O.3     1  LIG1       -0.5025
     33 H           0.5745    7.6042    0.0034 H       1  LIG1        0.2923
     34 O          -1.3553    9.0221    0.0038 O.3     1  LIG1       -0.4909
     35 C           0.0736    8.9657    0.0035 C.3     1  LIG1        0.0790
     36 H           0.4699    9.9596    0.0030 H       1  LIG1        0.0660
     37 H           0.4102    8.4479    0.8774 H       1  LIG1        0.0660
     38 H           0.4099    8.4472   -0.8699 H       1  LIG1        0.0660
@<TRIPOS>BOND
     1    13    10    1
     2    25    22    1
     3    38    35    1
     4    11    10    1
     5    10     9    1
     6    10    12    1
     7     9     3    1
     8     6     1    1
     9     8     7    1
    10     7     2    1
    11     1     2   ar
    12     1     5   ar
    13     3     2   ar
    14     3     4   ar
    15    23    22    1
    16     5     4   ar
    17     4    14    1
    18    22    21    1
    19    22    24    1
    20    21    16    1
    21    20    19    1
    22    19    15    1
    23    14    15   ar
    24    14    18   ar
    25    15    16   ar
    26    16    17   ar
    27    18    17   ar
    28    17    26    1
    29    36    35    1
    30    33    32    1
    31    32    27    1
    32    35    34    1
    33    35    37    1
    34    26    27   ar
    35    26    30   ar
    36    34    28    1
    37    27    28   ar
    38    28    29   ar
    39    30    29   ar
    40    29    31    1
