@<TRIPOS>MOLECULE
mol_data/noopt/geoms/mol2/5fl5fl.out
 26 27 0 0 0
SMALL
GASTEIGER

@<TRIPOS>ATOM
      1 C          -2.0792   -1.7080   -0.0002 C.ar    1  LIG1        0.0215
      2 C          -0.7020   -1.7080   -0.0002 C.ar    1  LIG1        0.1663
      3 C          -0.1766   -0.3757   -0.0002 C.ar    1  LIG1        0.1766
      4 C          -1.1831    0.5643    0.0006 C.ar    1  LIG1        0.0749
      5 S          -2.6937   -0.1528    0.0006 S.2     1  LIG1       -0.0885
      6 H          -2.8374   -2.7640   -0.0008 H       1  LIG1        0.0731
      7 O           0.0503   -2.7682   -0.0004 O.3     1  LIG1       -0.5029
      8 H           0.9738   -2.5059   -0.0004 H       1  LIG1        0.2923
      9 O           1.0969   -0.1143   -0.0009 O.3     1  LIG1       -0.4903
     10 C           1.8355   -1.3388   -0.0012 C.3     1  LIG1        0.0790
     11 H           2.8835   -1.1232   -0.0020 H       1  LIG1        0.0660
     12 H           1.5884   -1.9046    0.8727 H       1  LIG1        0.0660
     13 H           1.5872   -1.9049   -0.8746 H       1  LIG1        0.0660
     14 C          -1.0166    1.8536    0.0014 C.ar    1  LIG1        0.0747
     15 C           0.1956    2.5069    0.0205 C.ar    1  LIG1        0.1742
     16 C           0.0262    3.9290    0.0147 C.ar    1  LIG1        0.1689
     17 C          -1.3056    4.2790   -0.0075 C.ar    1  LIG1        0.0218
     18 S          -2.2951    2.9311   -0.0215 S.2     1  LIG1       -0.0885
     19 H          -1.7706    5.4930   -0.0170 H       1  LIG1        0.0731
     20 O           1.3607    1.9305    0.0410 O.3     1  LIG1       -0.5025
     21 H           2.0491    2.5995    0.0461 H       1  LIG1        0.2923
     22 O           1.0231    4.7633    0.0291 O.3     1  LIG1       -0.4909
     23 C           2.2542    4.0357    0.0343 C.3     1  LIG1        0.0790
     24 H           3.0745    4.7227    0.0460 H       1  LIG1        0.0660
     25 H           2.2974    3.4139    0.9041 H       1  LIG1        0.0660
     26 H           2.3120    3.4261   -0.8431 H       1  LIG1        0.0660
@<TRIPOS>BOND
     1    13    10    1
     2    26    23    1
     3    18    17   ar
     4    18    14   ar
     5    19    17    1
     6    17    16   ar
     7    11    10    1
     8    10     9    1
     9    10    12    1
    10     9     3    1
    11     6     1    1
    12     8     7    1
    13     7     2    1
    14     1     2   ar
    15     1     5   ar
    16     3     2   ar
    17     3     4   ar
    18     5     4   ar
    19     4    14    1
    20    14    15   ar
    21    16    15   ar
    22    16    22    1
    23    15    20    1
    24    22    23    1
    25    23    24    1
    26    23    25    1
    27    20    21    1
