@<TRIPOS>MOLECULE
mol_data/noopt/geoms/mol2/5fl5fl5fl-.out
 38 40 0 0 0
SMALL
GASTEIGER

@<TRIPOS>ATOM
      1 C          -2.0792   -1.7080   -0.0002 C.ar    1  LIG1        0.0215
      2 C          -0.7020   -1.7080   -0.0002 C.ar    1  LIG1        0.1663
      3 C          -0.1766   -0.3757   -0.0002 C.ar    1  LIG1        0.1766
      4 C          -1.1831    0.5643    0.0006 C.ar    1  LIG1        0.0749
      5 S          -2.6937   -0.1528    0.0006 S.2     1  LIG1       -0.0885
      6 H          -2.8374   -2.7640   -0.0008 H       1  LIG1        0.0731
      7 O           0.0503   -2.7682   -0.0004 O.3     1  LIG1       -0.5029
      8 H           0.9738   -2.5059   -0.0004 H       1  LIG1        0.2923
      9 O           1.0969   -0.1143   -0.0009 O.3     1  LIG1       -0.4903
     10 C           1.8355   -1.3388   -0.0012 C.3     1  LIG1        0.0790
     11 H           2.8835   -1.1232   -0.0020 H       1  LIG1        0.0660
     12 H           1.5884   -1.9046    0.8727 H       1  LIG1        0.0660
     13 H           1.5872   -1.9049   -0.8746 H       1  LIG1        0.0660
     14 C          -1.0166    1.8536    0.0014 C.ar    1  LIG1        0.0753
     15 C           0.1956    2.5069    0.0205 C.ar    1  LIG1        0.1748
     16 C           0.0262    3.9290    0.0147 C.ar    1  LIG1        0.1773
     17 C          -1.3056    4.2790   -0.0075 C.ar    1  LIG1        0.0755
     18 S          -2.2951    2.9311   -0.0215 S.2     1  LIG1       -0.0794
     19 O           1.3607    1.9305    0.0410 O.3     1  LIG1       -0.5025
     20 H           2.0491    2.5995    0.0461 H       1  LIG1        0.2923
     21 O           1.0231    4.7633    0.0291 O.3     1  LIG1       -0.4903
     22 C           2.2542    4.0357    0.0343 C.3     1  LIG1        0.0790
     23 H           3.0745    4.7227    0.0460 H       1  LIG1        0.0660
     24 H           2.2974    3.4139    0.9041 H       1  LIG1        0.0660
     25 H           2.3120    3.4261   -0.8431 H       1  LIG1        0.0660
     26 C          -1.7706    5.4930   -0.0170 C.ar    1  LIG1        0.0747
     27 C          -1.0134    6.6433   -0.0043 C.ar    1  LIG1        0.1742
     28 C          -1.8371    7.8147   -0.0210 C.ar    1  LIG1        0.1689
     29 C          -3.1754    7.4910   -0.0446 C.ar    1  LIG1        0.0218
     30 S          -3.4072    5.8350   -0.0470 S.2     1  LIG1       -0.0885
     31 H          -4.1606    8.3390   -0.0631 H       1  LIG1        0.0731
     32 O           0.2857    6.6886    0.0196 O.3     1  LIG1       -0.5025
     33 H           0.5743    7.6042    0.0255 H       1  LIG1        0.2923
     34 O          -1.3551    9.0221   -0.0141 O.3     1  LIG1       -0.4909
     35 C           0.0737    8.9657   -0.0117 C.3     1  LIG1        0.0790
     36 H           0.4700    9.9596   -0.0062 H       1  LIG1        0.0660
     37 H           0.4086    8.4435    0.8602 H       1  LIG1        0.0660
     38 H           0.4119    8.4518   -0.8871 H       1  LIG1        0.0660
@<TRIPOS>BOND
     1    38    35    1
     2    13    10    1
     3    25    22    1
     4    31    29    1
     5    30    29   ar
     6    30    26   ar
     7    29    28   ar
     8    18    17   ar
     9    18    14   ar
    10    28    34    1
    11    28    27   ar
    12    26    17    1
    13    26    27   ar
    14    34    35    1
    15    35    36    1
    16    35    37    1
    17    17    16   ar
    18    27    32    1
    19    11    10    1
    20    10     9    1
    21    10    12    1
    22     9     3    1
    23     6     1    1
    24     8     7    1
    25     7     2    1
    26     1     2   ar
    27     1     5   ar
    28     2     3   ar
    29     3     4   ar
    30     4     5   ar
    31     4    14    1
    32    14    15   ar
    33    16    15   ar
    34    16    21    1
    35    32    33    1
    36    15    19    1
    37    21    22    1
    38    22    23    1
    39    22    24    1
    40    19    20    1
