@<TRIPOS>MOLECULE
mol_data/noopt/geoms/mol2/5fl5fl-5fl-5fl-.out
 50 53 0 0 0
SMALL
GASTEIGER

@<TRIPOS>ATOM
      1 C          -2.0792   -1.7080   -0.0002 C.ar    1  LIG1        0.0215
      2 C          -0.7020   -1.7080   -0.0002 C.ar    1  LIG1        0.1663
      3 C          -0.1766   -0.3757   -0.0002 C.ar    1  LIG1        0.1766
      4 C          -1.1831    0.5643    0.0006 C.ar    1  LIG1        0.0749
      5 S          -2.6937   -0.1528    0.0006 S.2     1  LIG1       -0.0885
      6 H          -2.8374   -2.7640   -0.0008 H       1  LIG1        0.0731
      7 O           0.0503   -2.7682   -0.0004 O.3     1  LIG1       -0.5029
      8 H           0.9738   -2.5059   -0.0004 H       1  LIG1        0.2923
      9 O           1.0969   -0.1143   -0.0009 O.3     1  LIG1       -0.4903
     10 C           1.8355   -1.3388   -0.0012 C.3     1  LIG1        0.0790
     11 H           2.8835   -1.1232   -0.0020 H       1  LIG1        0.0660
     12 H           1.5884   -1.9046    0.8727 H       1  LIG1        0.0660
     13 H           1.5872   -1.9049   -0.8746 H       1  LIG1        0.0660
     14 C          -1.0166    1.8536    0.0014 C.ar    1  LIG1        0.0753
     15 C           0.1958    2.5069    0.0015 C.ar    1  LIG1        0.1748
     16 C           0.0263    3.9290    0.0017 C.ar    1  LIG1        0.1773
     17 C          -1.3057    4.2790    0.0026 C.ar    1  LIG1        0.0755
     18 S          -2.2953    2.9311    0.0023 S.2     1  LIG1       -0.0794
     19 O           1.3610    1.9305    0.0013 O.3     1  LIG1       -0.5025
     20 H           2.0495    2.5995    0.0012 H       1  LIG1        0.2923
     21 O           1.0233    4.7633    0.0012 O.3     1  LIG1       -0.4903
     22 C           2.2544    4.0357    0.0009 C.3     1  LIG1        0.0790
     23 H           3.0747    4.7226    0.0003 H       1  LIG1        0.0660
     24 H           2.3052    3.4203    0.8748 H       1  LIG1        0.0660
     25 H           2.3044    3.4196   -0.8725 H       1  LIG1        0.0660
     26 C          -1.7708    5.4930    0.0035 C.ar    1  LIG1        0.0753
     27 C          -1.0136    6.6432    0.0227 C.ar    1  LIG1        0.1748
     28 C          -1.8374    7.8147    0.0172 C.ar    1  LIG1        0.1773
     29 C          -3.1758    7.4910   -0.0051 C.ar    1  LIG1        0.0755
     30 S          -3.4074    5.8351   -0.0192 S.2     1  LIG1       -0.0794
     31 O           0.2855    6.6885    0.0432 O.3     1  LIG1       -0.5025
     32 H           0.5742    7.6040    0.0482 H       1  LIG1        0.2923
     33 O          -1.3555    9.0221    0.0317 O.3     1  LIG1       -0.4903
     34 C           0.0734    8.9656    0.0369 C.3     1  LIG1        0.0790
     35 H           0.4696    9.9595    0.0487 H       1  LIG1        0.0660
     36 H           0.4064    8.4386    0.9067 H       1  LIG1        0.0660
     37 H           0.4135    8.4565   -0.8405 H       1  LIG1        0.0660
     38 C          -4.1610    8.3391   -0.0144 C.ar    1  LIG1        0.0747
     39 C          -4.0399    9.7110   -0.0205 C.ar    1  LIG1        0.1742
     40 C          -5.3208   10.3515   -0.0311 C.ar    1  LIG1        0.1689
     41 C          -6.3457    9.4315   -0.0316 C.ar    1  LIG1        0.0218
     42 S          -5.7642    7.8638   -0.0205 S.2     1  LIG1       -0.0885
     43 H          -7.6153    9.7107   -0.0396 H       1  LIG1        0.0731
     44 O          -2.9176   10.3672   -0.0175 O.3     1  LIG1       -0.5025
     45 H          -3.0978   11.3101   -0.0167 H       1  LIG1        0.2923
     46 O          -5.4692   11.6430   -0.0391 O.3     1  LIG1       -0.4909
     47 C          -4.1845   12.2710   -0.0421 C.3     1  LIG1        0.0790
     48 H          -4.3070   13.3340   -0.0488 H       1  LIG1        0.0660
     49 H          -3.6431   11.9800    0.8339 H       1  LIG1        0.0660
     50 H          -3.6419   11.9691   -0.9134 H       1  LIG1        0.0660
@<TRIPOS>BOND
     1    50    47    1
     2    13    10    1
     3    25    22    1
     4    37    34    1
     5    48    47    1
     6    47    46    1
     7    47    49    1
     8    43    41    1
     9    46    40    1
    10    41    40   ar
    11    41    42   ar
    12    40    39   ar
    13    39    44    1
    14    39    38   ar
    15    42    38   ar
    16    30    29   ar
    17    30    26   ar
    18    44    45    1
    19    38    29    1
    20    29    28   ar
    21    11    10    1
    22    10     9    1
    23    10    12    1
    24     9     3    1
    25     6     1    1
    26     8     7    1
    27     7     2    1
    28     1     2   ar
    29     1     5   ar
    30     2     3   ar
    31     3     4   ar
    32    23    22    1
    33     4     5   ar
    34     4    14    1
    35    22    21    1
    36    22    24    1
    37    21    16    1
    38    20    19    1
    39    19    15    1
    40    14    15   ar
    41    14    18   ar
    42    15    16   ar
    43    16    17   ar
    44    18    17   ar
    45    17    26    1
    46    26    27   ar
    47    28    27   ar
    48    28    33    1
    49    27    31    1
    50    33    34    1
    51    34    35    1
    52    34    36    1
    53    31    32    1
