@<TRIPOS>MOLECULE
mol_data/noopt/geoms/mol2/5fl5fl5fl-5fl.out
 50 53 0 0 0
SMALL
GASTEIGER

@<TRIPOS>ATOM
      1 C          -2.0792   -1.7080   -0.0002 C.ar    1  LIG1        0.0215
      2 C          -0.7020   -1.7080   -0.0002 C.ar    1  LIG1        0.1663
      3 C          -0.1766   -0.3757   -0.0002 C.ar    1  LIG1        0.1766
      4 C          -1.1831    0.5643    0.0006 C.ar    1  LIG1        0.0749
      5 S          -2.6937   -0.1528    0.0006 S.2     1  LIG1       -0.0885
      6 H          -2.8374   -2.7640   -0.0008 H       1  LIG1        0.0731
      7 O           0.0503   -2.7682   -0.0004 O.3     1  LIG1       -0.5029
      8 H           0.9738   -2.5059   -0.0004 H       1  LIG1        0.2923
      9 O           1.0969   -0.1143   -0.0009 O.3     1  LIG1       -0.4903
     10 C           1.8355   -1.3388   -0.0012 C.3     1  LIG1        0.0790
     11 H           2.8835   -1.1232   -0.0020 H       1  LIG1        0.0660
     12 H           1.5884   -1.9046    0.8727 H       1  LIG1        0.0660
     13 H           1.5872   -1.9049   -0.8746 H       1  LIG1        0.0660
     14 C          -1.0166    1.8536    0.0014 C.ar    1  LIG1        0.0753
     15 C           0.1956    2.5069    0.0205 C.ar    1  LIG1        0.1748
     16 C           0.0262    3.9290    0.0147 C.ar    1  LIG1        0.1773
     17 C          -1.3056    4.2790   -0.0075 C.ar    1  LIG1        0.0755
     18 S          -2.2951    2.9311   -0.0215 S.2     1  LIG1       -0.0794
     19 O           1.3607    1.9305    0.0410 O.3     1  LIG1       -0.5025
     20 H           2.0491    2.5995    0.0461 H       1  LIG1        0.2923
     21 O           1.0231    4.7633    0.0291 O.3     1  LIG1       -0.4903
     22 C           2.2542    4.0357    0.0343 C.3     1  LIG1        0.0790
     23 H           3.0745    4.7227    0.0460 H       1  LIG1        0.0660
     24 H           2.2974    3.4139    0.9041 H       1  LIG1        0.0660
     25 H           2.3120    3.4261   -0.8431 H       1  LIG1        0.0660
     26 C          -1.7706    5.4930   -0.0170 C.ar    1  LIG1        0.0753
     27 C          -1.0134    6.6433   -0.0043 C.ar    1  LIG1        0.1748
     28 C          -1.8371    7.8147   -0.0210 C.ar    1  LIG1        0.1773
     29 C          -3.1754    7.4910   -0.0446 C.ar    1  LIG1        0.0755
     30 S          -3.4072    5.8350   -0.0470 S.2     1  LIG1       -0.0794
     31 O           0.2857    6.6886    0.0196 O.3     1  LIG1       -0.5025
     32 H           0.5743    7.6042    0.0255 H       1  LIG1        0.2923
     33 O          -1.3551    9.0221   -0.0141 O.3     1  LIG1       -0.4903
     34 C           0.0737    8.9657   -0.0117 C.3     1  LIG1        0.0790
     35 H           0.4700    9.9596   -0.0062 H       1  LIG1        0.0660
     36 H           0.4086    8.4435    0.8602 H       1  LIG1        0.0660
     37 H           0.4119    8.4518   -0.8871 H       1  LIG1        0.0660
     38 C          -4.1606    8.3390   -0.0631 C.ar    1  LIG1        0.0747
     39 C          -4.0397    9.7109   -0.0560 C.ar    1  LIG1        0.1742
     40 C          -5.3204   10.3513   -0.0823 C.ar    1  LIG1        0.1689
     41 C          -6.3449    9.4313   -0.1072 C.ar    1  LIG1        0.0218
     42 S          -5.7633    7.8636   -0.0994 S.2     1  LIG1       -0.0885
     43 H          -7.6143    9.7105   -0.1337 H       1  LIG1        0.0731
     44 O          -2.9178   10.3672   -0.0292 O.3     1  LIG1       -0.5025
     45 H          -3.0982   11.3100   -0.0226 H       1  LIG1        0.2923
     46 O          -5.4689   11.6429   -0.0821 O.3     1  LIG1       -0.4909
     47 C          -4.1843   12.2710   -0.0821 C.3     1  LIG1        0.0790
     48 H          -4.3070   13.3340   -0.0821 H       1  LIG1        0.0660
     49 H          -3.6423   11.9746    0.7916 H       1  LIG1        0.0660
     50 H          -3.6423   11.9746   -0.9557 H       1  LIG1        0.0660
@<TRIPOS>BOND
     1    50    47    1
     2    37    34    1
     3    13    10    1
     4    25    22    1
     5    43    41    1
     6    41    42   ar
     7    41    40   ar
     8    42    38   ar
     9    40    46    1
    10    40    39   ar
    11    48    47    1
    12    47    46    1
    13    47    49    1
    14    38    39   ar
    15    38    29    1
    16    39    44    1
    17    30    29   ar
    18    30    26   ar
    19    29    28   ar
    20    44    45    1
    21    18    17   ar
    22    18    14   ar
    23    28    33    1
    24    28    27   ar
    25    26    17    1
    26    26    27   ar
    27    33    34    1
    28    34    35    1
    29    34    36    1
    30    17    16   ar
    31    27    31    1
    32    11    10    1
    33    10     9    1
    34    10    12    1
    35     9     3    1
    36     6     1    1
    37     8     7    1
    38     7     2    1
    39     1     2   ar
    40     1     5   ar
    41     3     2   ar
    42     3     4   ar
    43     5     4   ar
    44     4    14    1
    45    14    15   ar
    46    16    15   ar
    47    16    21    1
    48    31    32    1
    49    15    19    1
    50    21    22    1
    51    22    23    1
    52    22    24    1
    53    19    20    1
