@<TRIPOS>MOLECULE
mol_data/noopt/geoms/mol2/5ga.out
 10 10 0 0 0
SMALL
GASTEIGER

@<TRIPOS>ATOM
      1 C          -2.0792   -1.7080   -0.0002 C.ar    1  LIG1       -0.0112
      2 C          -0.7020   -1.7080   -0.0002 C.ar    1  LIG1        0.0117
      3 C          -0.1766   -0.3757   -0.0002 C.ar    1  LIG1       -0.0415
      4 C          -1.1831    0.5643    0.0006 C.ar    1  LIG1       -0.0233
      5 S          -2.6937   -0.1528    0.0006 S.2     1  LIG1       -0.1040
      6 H          -2.8374   -2.7640   -0.0008 H       1  LIG1        0.0704
      7 H          -1.0166    1.8536    0.0014 H       1  LIG1        0.0694
      8 S           0.0503   -2.7682   -0.0004 S.3     1  LIG1       -0.1421
      9 H           1.3104   -2.4102   -0.0005 H       1  LIG1        0.1071
     10 H           1.0969   -0.1143   -0.0009 H       1  LIG1        0.0634
@<TRIPOS>BOND
     1    10     3    1
     2     6     1    1
     3     9     8    1
     4     8     2    1
     5     1     2   ar
     6     1     5   ar
     7     2     3   ar
     8     3     4   ar
     9     4     5   ar
    10     4     7    1
