@<TRIPOS>MOLECULE
mol_data/noopt/geoms/mol2/5ga5ga-5ga-.out
 26 28 0 0 0
SMALL
GASTEIGER

@<TRIPOS>ATOM
      1 C          -2.0792   -1.7080   -0.0002 C.ar    1  LIG1       -0.0105
      2 C          -0.7020   -1.7080   -0.0002 C.ar    1  LIG1        0.0124
      3 C          -0.1766   -0.3757   -0.0002 C.ar    1  LIG1       -0.0332
      4 C          -1.1831    0.5643    0.0006 C.ar    1  LIG1        0.0280
      5 S          -2.6937   -0.1528    0.0006 S.2     1  LIG1       -0.0950
      6 H          -2.8374   -2.7640   -0.0008 H       1  LIG1        0.0704
      7 S           0.0503   -2.7682   -0.0004 S.3     1  LIG1       -0.1421
      8 H           1.3104   -2.4102   -0.0005 H       1  LIG1        0.1071
      9 H           1.0969   -0.1143   -0.0009 H       1  LIG1        0.0640
     10 C          -1.0166    1.8536    0.0014 C.ar    1  LIG1        0.0397
     11 C           0.1958    2.5069    0.0015 C.ar    1  LIG1        0.0206
     12 C           0.0263    3.9290    0.0017 C.ar    1  LIG1       -0.0326
     13 C          -1.3057    4.2790    0.0026 C.ar    1  LIG1        0.0286
     14 S          -2.2953    2.9311    0.0023 S.2     1  LIG1       -0.0861
     15 S           1.3609    1.9305    0.0013 S.3     1  LIG1       -0.1415
     16 H           2.3004    2.8435    0.0012 H       1  LIG1        0.1071
     17 H           1.0233    4.7632    0.0012 H       1  LIG1        0.0640
     18 C          -1.7708    5.4930    0.0035 C.ar    1  LIG1        0.0391
     19 C          -1.0136    6.6432    0.0227 C.ar    1  LIG1        0.0200
     20 C          -1.8374    7.8147    0.0172 C.ar    1  LIG1       -0.0409
     21 C          -3.1758    7.4910   -0.0051 C.ar    1  LIG1       -0.0227
     22 S          -3.4074    5.8351   -0.0192 S.2     1  LIG1       -0.0950
     23 H          -4.1610    8.3391   -0.0144 H       1  LIG1        0.0694
     24 S           0.2854    6.6885    0.0432 S.3     1  LIG1       -0.1415
     25 H           0.6794    7.9378    0.0501 H       1  LIG1        0.1071
     26 H          -1.3555    9.0220    0.0317 H       1  LIG1        0.0634
@<TRIPOS>BOND
     1    22    21   ar
     2    22    18   ar
     3    23    21    1
     4    21    20   ar
     5     9     3    1
     6     6     1    1
     7     8     7    1
     8     7     2    1
     9     2     3   ar
    10     2     1   ar
    11     3     4   ar
    12     1     5   ar
    13     4     5   ar
    14     4    10    1
    15    16    15    1
    16    17    12    1
    17    15    11    1
    18    10    11   ar
    19    10    14   ar
    20    11    12   ar
    21    12    13   ar
    22    14    13   ar
    23    13    18    1
    24    18    19   ar
    25    20    19   ar
    26    20    26    1
    27    19    24    1
    28    24    25    1
