@<TRIPOS>MOLECULE
mol_data/noopt/geoms/mol2/5ga5ga-5ga-5ga-.out
 34 37 0 0 0
SMALL
GASTEIGER

@<TRIPOS>ATOM
      1 C          -2.0792   -1.7080   -0.0002 C.ar    1  LIG1       -0.0105
      2 C          -0.7020   -1.7080   -0.0002 C.ar    1  LIG1        0.0124
      3 C          -0.1766   -0.3757   -0.0002 C.ar    1  LIG1       -0.0332
      4 C          -1.1831    0.5643    0.0006 C.ar    1  LIG1        0.0280
      5 S          -2.6937   -0.1528    0.0006 S.2     1  LIG1       -0.0950
      6 H          -2.8374   -2.7640   -0.0008 H       1  LIG1        0.0704
      7 S           0.0503   -2.7682   -0.0004 S.3     1  LIG1       -0.1421
      8 H           1.3104   -2.4102   -0.0005 H       1  LIG1        0.1071
      9 H           1.0969   -0.1143   -0.0009 H       1  LIG1        0.0640
     10 C          -1.0166    1.8536    0.0014 C.ar    1  LIG1        0.0397
     11 C           0.1958    2.5069    0.0015 C.ar    1  LIG1        0.0206
     12 C           0.0263    3.9290    0.0017 C.ar    1  LIG1       -0.0326
     13 C          -1.3057    4.2790    0.0026 C.ar    1  LIG1        0.0286
     14 S          -2.2953    2.9311    0.0023 S.2     1  LIG1       -0.0861
     15 S           1.3609    1.9305    0.0013 S.3     1  LIG1       -0.1415
     16 H           2.3004    2.8435    0.0012 H       1  LIG1        0.1071
     17 H           1.0233    4.7632    0.0012 H       1  LIG1        0.0640
     18 C          -1.7708    5.4930    0.0035 C.ar    1  LIG1        0.0397
     19 C          -1.0136    6.6432    0.0227 C.ar    1  LIG1        0.0206
     20 C          -1.8374    7.8147    0.0172 C.ar    1  LIG1       -0.0326
     21 C          -3.1758    7.4910   -0.0051 C.ar    1  LIG1        0.0286
     22 S          -3.4074    5.8351   -0.0192 S.2     1  LIG1       -0.0861
     23 S           0.2854    6.6885    0.0432 S.3     1  LIG1       -0.1415
     24 H           0.6794    7.9378    0.0501 H       1  LIG1        0.1071
     25 H          -1.3555    9.0220    0.0317 H       1  LIG1        0.0640
     26 C          -4.1610    8.3391   -0.0144 C.ar    1  LIG1        0.0391
     27 C          -4.0399    9.7110   -0.0205 C.ar    1  LIG1        0.0200
     28 C          -5.3208   10.3515   -0.0311 C.ar    1  LIG1       -0.0409
     29 C          -6.3457    9.4315   -0.0316 C.ar    1  LIG1       -0.0227
     30 S          -5.7642    7.8638   -0.0205 S.2     1  LIG1       -0.0950
     31 H          -7.6153    9.7107   -0.0396 H       1  LIG1        0.0694
     32 S          -2.9177   10.3671   -0.0175 S.3     1  LIG1       -0.1415
     33 H          -3.1635   11.6539   -0.0165 H       1  LIG1        0.1071
     34 H          -5.4692   11.6430   -0.0391 H       1  LIG1        0.0634
@<TRIPOS>BOND
     1    31    29    1
     2    34    28    1
     3    29    28   ar
     4    29    30   ar
     5    28    27   ar
     6    27    32    1
     7    27    26   ar
     8    30    26   ar
     9    22    21   ar
    10    22    18   ar
    11    32    33    1
    12    26    21    1
    13    21    20   ar
    14     9     3    1
    15     6     1    1
    16     8     7    1
    17     7     2    1
    18     1     2   ar
    19     1     5   ar
    20     2     3   ar
    21     3     4   ar
    22     4     5   ar
    23     4    10    1
    24    16    15    1
    25    17    12    1
    26    15    11    1
    27    10    11   ar
    28    10    14   ar
    29    11    12   ar
    30    12    13   ar
    31    14    13   ar
    32    13    18    1
    33    18    19   ar
    34    20    19   ar
    35    20    25    1
    36    19    23    1
    37    23    24    1
