@<TRIPOS>MOLECULE
mol_data/noopt/geoms/mol2/5ga5ga-5ga.out
 26 28 0 0 0
SMALL
GASTEIGER

@<TRIPOS>ATOM
      1 C          -2.0792   -1.7080   -0.0002 C.ar    1  LIG1       -0.0105
      2 C          -0.7020   -1.7080   -0.0002 C.ar    1  LIG1        0.0124
      3 C          -0.1766   -0.3757   -0.0002 C.ar    1  LIG1       -0.0332
      4 C          -1.1831    0.5643    0.0006 C.ar    1  LIG1        0.0280
      5 S          -2.6937   -0.1528    0.0006 S.2     1  LIG1       -0.0950
      6 H          -2.8374   -2.7640   -0.0008 H       1  LIG1        0.0704
      7 S           0.0503   -2.7682   -0.0004 S.3     1  LIG1       -0.1421
      8 H           1.3104   -2.4102   -0.0005 H       1  LIG1        0.1071
      9 H           1.0969   -0.1143   -0.0009 H       1  LIG1        0.0640
     10 C          -1.0166    1.8536    0.0014 C.ar    1  LIG1        0.0397
     11 C           0.1958    2.5069    0.0015 C.ar    1  LIG1        0.0206
     12 C           0.0263    3.9290    0.0017 C.ar    1  LIG1       -0.0326
     13 C          -1.3057    4.2790    0.0026 C.ar    1  LIG1        0.0286
     14 S          -2.2953    2.9311    0.0023 S.2     1  LIG1       -0.0861
     15 S           1.3609    1.9305    0.0013 S.3     1  LIG1       -0.1415
     16 H           2.3004    2.8435    0.0012 H       1  LIG1        0.1071
     17 H           1.0233    4.7632    0.0012 H       1  LIG1        0.0640
     18 C          -1.7708    5.4930    0.0035 C.ar    1  LIG1        0.0391
     19 C          -1.0134    6.6433    0.0038 C.ar    1  LIG1        0.0200
     20 C          -1.8373    7.8147    0.0042 C.ar    1  LIG1       -0.0409
     21 C          -3.1759    7.4910    0.0050 C.ar    1  LIG1       -0.0227
     22 S          -3.4076    5.8350    0.0046 S.2     1  LIG1       -0.0950
     23 H          -4.1612    8.3391    0.0062 H       1  LIG1        0.0694
     24 S           0.2857    6.6886    0.0035 S.3     1  LIG1       -0.1415
     25 H           0.6797    7.9380    0.0033 H       1  LIG1        0.1071
     26 H          -1.3553    9.0221    0.0038 H       1  LIG1        0.0634
@<TRIPOS>BOND
     1     9     3    1
     2     6     1    1
     3     8     7    1
     4     7     2    1
     5     2     3   ar
     6     2     1   ar
     7     3     4   ar
     8     1     5   ar
     9     4     5   ar
    10     4    10    1
    11    16    15    1
    12    17    12    1
    13    15    11    1
    14    10    11   ar
    15    10    14   ar
    16    11    12   ar
    17    12    13   ar
    18    14    13   ar
    19    13    18    1
    20    25    24    1
    21    24    19    1
    22    18    19   ar
    23    18    22   ar
    24    26    20    1
    25    19    20   ar
    26    20    21   ar
    27    22    21   ar
    28    21    23    1
