@<TRIPOS>MOLECULE
mol_data/noopt/geoms/mol2/5ga5ga5ga5ga-.out
 34 37 0 0 0
SMALL
GASTEIGER

@<TRIPOS>ATOM
      1 C          -2.0792   -1.7080   -0.0002 C.ar    1  LIG1       -0.0105
      2 C          -0.7020   -1.7080   -0.0002 C.ar    1  LIG1        0.0124
      3 C          -0.1766   -0.3757   -0.0002 C.ar    1  LIG1       -0.0332
      4 C          -1.1831    0.5643    0.0006 C.ar    1  LIG1        0.0280
      5 S          -2.6937   -0.1528    0.0006 S.2     1  LIG1       -0.0950
      6 H          -2.8374   -2.7640   -0.0008 H       1  LIG1        0.0704
      7 S           0.0503   -2.7682   -0.0004 S.3     1  LIG1       -0.1421
      8 H           1.3104   -2.4102   -0.0005 H       1  LIG1        0.1071
      9 H           1.0969   -0.1143   -0.0009 H       1  LIG1        0.0640
     10 C          -1.0166    1.8536    0.0014 C.ar    1  LIG1        0.0397
     11 C           0.1956    2.5069    0.0205 C.ar    1  LIG1        0.0206
     12 C           0.0262    3.9290    0.0147 C.ar    1  LIG1       -0.0326
     13 C          -1.3056    4.2790   -0.0075 C.ar    1  LIG1        0.0286
     14 S          -2.2951    2.9311   -0.0215 S.2     1  LIG1       -0.0861
     15 S           1.3606    1.9305    0.0410 S.3     1  LIG1       -0.1415
     16 H           2.3001    2.8435    0.0479 H       1  LIG1        0.1071
     17 H           1.0231    4.7632    0.0291 H       1  LIG1        0.0640
     18 C          -1.7706    5.4930   -0.0170 C.ar    1  LIG1        0.0397
     19 C          -1.0132    6.6432   -0.0232 C.ar    1  LIG1        0.0206
     20 C          -1.8369    7.8147   -0.0340 C.ar    1  LIG1       -0.0326
     21 C          -3.1756    7.4910   -0.0345 C.ar    1  LIG1        0.0286
     22 S          -3.4074    5.8350   -0.0232 S.2     1  LIG1       -0.0861
     23 S           0.2860    6.6885   -0.0202 S.3     1  LIG1       -0.1415
     24 H           0.6800    7.9378   -0.0191 H       1  LIG1        0.1071
     25 H          -1.3549    9.0220   -0.0421 H       1  LIG1        0.0640
     26 C          -4.1608    8.3391   -0.0426 C.ar    1  LIG1        0.0391
     27 C          -4.0397    9.7110   -0.0479 C.ar    1  LIG1        0.0200
     28 C          -5.3206   10.3514   -0.0572 C.ar    1  LIG1       -0.0409
     29 C          -6.3455    9.4315   -0.0576 C.ar    1  LIG1       -0.0227
     30 S          -5.7640    7.8637   -0.0478 S.2     1  LIG1       -0.0950
     31 H          -7.6151    9.7107   -0.0644 H       1  LIG1        0.0694
     32 S          -2.9175   10.3671   -0.0453 S.3     1  LIG1       -0.1415
     33 H          -3.1633   11.6539   -0.0444 H       1  LIG1        0.1071
     34 H          -5.4690   11.6429   -0.0642 H       1  LIG1        0.0634
@<TRIPOS>BOND
     1    31    29    1
     2    34    28    1
     3    29    28   ar
     4    29    30   ar
     5    28    27   ar
     6    27    32    1
     7    27    26   ar
     8    30    26   ar
     9    32    33    1
    10    26    21    1
    11    25    20    1
    12    21    20   ar
    13    21    22   ar
    14    20    19   ar
    15    19    23    1
    16    19    18   ar
    17    22    18   ar
    18    14    13   ar
    19    14    10   ar
    20    23    24    1
    21    18    13    1
    22    13    12   ar
    23     9     3    1
    24     6     1    1
    25     8     7    1
    26     7     2    1
    27     1     2   ar
    28     1     5   ar
    29     3     2   ar
    30     3     4   ar
    31     5     4   ar
    32     4    10    1
    33    10    11   ar
    34    12    11   ar
    35    12    17    1
    36    11    15    1
    37    15    16    1
