@<TRIPOS>MOLECULE
mol_data/noopt/geoms/mol2/5ga5ga-5ga-5ga.out
 34 37 0 0 0
SMALL
GASTEIGER

@<TRIPOS>ATOM
      1 C          -2.0792   -1.7080   -0.0002 C.ar    1  LIG1       -0.0105
      2 C          -0.7020   -1.7080   -0.0002 C.ar    1  LIG1        0.0124
      3 C          -0.1766   -0.3757   -0.0002 C.ar    1  LIG1       -0.0332
      4 C          -1.1831    0.5643    0.0006 C.ar    1  LIG1        0.0280
      5 S          -2.6937   -0.1528    0.0006 S.2     1  LIG1       -0.0950
      6 H          -2.8374   -2.7640   -0.0008 H       1  LIG1        0.0704
      7 S           0.0503   -2.7682   -0.0004 S.3     1  LIG1       -0.1421
      8 H           1.3104   -2.4102   -0.0005 H       1  LIG1        0.1071
      9 H           1.0969   -0.1143   -0.0009 H       1  LIG1        0.0640
     10 C          -1.0166    1.8536    0.0014 C.ar    1  LIG1        0.0397
     11 C           0.1958    2.5069    0.0015 C.ar    1  LIG1        0.0206
     12 C           0.0263    3.9290    0.0017 C.ar    1  LIG1       -0.0326
     13 C          -1.3057    4.2790    0.0026 C.ar    1  LIG1        0.0286
     14 S          -2.2953    2.9311    0.0023 S.2     1  LIG1       -0.0861
     15 S           1.3609    1.9305    0.0013 S.3     1  LIG1       -0.1415
     16 H           2.3004    2.8435    0.0012 H       1  LIG1        0.1071
     17 H           1.0233    4.7632    0.0012 H       1  LIG1        0.0640
     18 C          -1.7708    5.4930    0.0035 C.ar    1  LIG1        0.0397
     19 C          -1.0136    6.6432    0.0227 C.ar    1  LIG1        0.0206
     20 C          -1.8374    7.8147    0.0172 C.ar    1  LIG1       -0.0326
     21 C          -3.1758    7.4910   -0.0051 C.ar    1  LIG1        0.0286
     22 S          -3.4074    5.8351   -0.0192 S.2     1  LIG1       -0.0861
     23 S           0.2854    6.6885    0.0432 S.3     1  LIG1       -0.1415
     24 H           0.6794    7.9378    0.0501 H       1  LIG1        0.1071
     25 H          -1.3555    9.0220    0.0317 H       1  LIG1        0.0640
     26 C          -4.1610    8.3391   -0.0144 C.ar    1  LIG1        0.0391
     27 C          -4.0401    9.7110   -0.0016 C.ar    1  LIG1        0.0200
     28 C          -5.3209   10.3515   -0.0181 C.ar    1  LIG1       -0.0409
     29 C          -6.3455    9.4316   -0.0417 C.ar    1  LIG1       -0.0227
     30 S          -5.7639    7.8638   -0.0443 S.2     1  LIG1       -0.0950
     31 H          -7.6151    9.7108   -0.0601 H       1  LIG1        0.0694
     32 S          -2.9181   10.3671    0.0222 S.3     1  LIG1       -0.1415
     33 H          -3.1641   11.6538    0.0303 H       1  LIG1        0.1071
     34 H          -5.4695   11.6429   -0.0111 H       1  LIG1        0.0634
@<TRIPOS>BOND
     1    31    29    1
     2    30    29   ar
     3    30    26   ar
     4    29    28   ar
     5    22    21   ar
     6    22    18   ar
     7    28    34    1
     8    28    27   ar
     9    26    21    1
    10    26    27   ar
    11    21    20   ar
    12    27    32    1
    13     9     3    1
    14     6     1    1
    15     8     7    1
    16     7     2    1
    17     1     2   ar
    18     1     5   ar
    19     2     3   ar
    20     3     4   ar
    21     4     5   ar
    22     4    10    1
    23    16    15    1
    24    17    12    1
    25    15    11    1
    26    10    11   ar
    27    10    14   ar
    28    11    12   ar
    29    12    13   ar
    30    14    13   ar
    31    13    18    1
    32    18    19   ar
    33    20    19   ar
    34    20    25    1
    35    32    33    1
    36    19    23    1
    37    23    24    1
