@<TRIPOS>MOLECULE
mol_data/noopt/geoms/mol2/5gd5gd5gd-5gd-.out
 38 44 0 0 0
SMALL
GASTEIGER

@<TRIPOS>ATOM
      1 C          -2.0792   -1.7080   -0.0002 C.ar    1  LIG1       -0.0102
      2 C          -0.7020   -1.7080   -0.0002 C.ar    1  LIG1        0.0175
      3 C          -0.1766   -0.3757   -0.0002 C.ar    1  LIG1        0.0080
      4 C          -1.1831    0.5643    0.0006 C.ar    1  LIG1        0.0332
      5 S          -2.6937   -0.1528    0.0006 S.2     1  LIG1       -0.0947
      6 H          -2.8374   -2.7640   -0.0008 H       1  LIG1        0.0704
      7 S           0.0503   -2.7682   -0.0004 S.3     1  LIG1       -0.1417
      8 H           1.3104   -2.4102   -0.0005 H       1  LIG1        0.1071
      9 N           2.2200    0.1162   -0.0015 N.3     1  LIG1       -0.1668
     10 C           1.0969   -0.1143   -0.0009 C.3     1  LIG1        0.1283
     11 C          -1.0166    1.8536    0.0014 C.ar    1  LIG1        0.0408
     12 C           0.1956    2.5069    0.0205 C.ar    1  LIG1        0.0318
     13 C           0.0262    3.9290    0.0147 C.ar    1  LIG1        0.0091
     14 C          -1.3056    4.2790   -0.0075 C.ar    1  LIG1        0.0338
     15 S          -2.2951    2.9311   -0.0215 S.2     1  LIG1       -0.0857
     16 S           1.3606    1.9305    0.0410 S.3     1  LIG1       -0.1055
     17 H           2.3001    2.8435    0.0479 H       1  LIG1        0.1142
     18 N           1.9024    5.4990    0.0418 N.3     1  LIG1       -0.1668
     19 C           1.0231    4.7632    0.0291 C.3     1  LIG1        0.1283
     20 C          -1.7706    5.4930   -0.0170 C.ar    1  LIG1        0.0408
     21 C          -1.0134    6.6433   -0.0043 C.ar    1  LIG1        0.0318
     22 C          -1.8371    7.8147   -0.0210 C.ar    1  LIG1        0.0091
     23 C          -3.1754    7.4910   -0.0446 C.ar    1  LIG1        0.0338
     24 S          -3.4072    5.8350   -0.0470 S.2     1  LIG1       -0.0857
     25 S           0.2856    6.6886    0.0196 S.3     1  LIG1       -0.1055
     26 H           0.6794    7.9380    0.0276 H       1  LIG1        0.1142
     27 N          -0.9301   10.0870   -0.0081 N.3     1  LIG1       -0.1668
     28 C          -1.3552    9.0221   -0.0141 C.3     1  LIG1        0.1283
     29 C          -4.1606    8.3390   -0.0631 C.ar    1  LIG1        0.0411
     30 C          -4.0394    9.7108   -0.0749 C.ar    1  LIG1        0.0434
     31 C          -5.3202   10.3513   -0.0953 C.ar    1  LIG1        0.0730
     32 C          -6.3451    9.4313   -0.0971 C.ar    1  LIG1       -0.0052
     33 S          -5.7637    7.8636   -0.0756 S.2     1  LIG1       -0.0937
     34 H          -7.6146    9.7105   -0.1131 H       1  LIG1        0.0707
     35 S          -2.9172   10.3670   -0.0689 S.3     1  LIG1       -0.1046
     36 H          -3.1630   11.6537   -0.0669 H       1  LIG1        0.1142
     37 N          -5.5993   12.7818   -0.1230 N.1     1  LIG1       -0.1908
     38 C          -5.4685   11.6427   -0.1100 C.1     1  LIG1        0.1008
@<TRIPOS>BOND
     1    37    38    3
     2    34    32    1
     3    38    31    1
     4    32    31   ar
     5    32    33   ar
     6    31    30   ar
     7    33    29   ar
     8    30    35    1
     9    30    29   ar
    10    35    36    1
    11    35    27    1
    12    29    23    1
    13    24    23   ar
    14    24    20   ar
    15    23    22   ar
    16    15    14   ar
    17    15    11   ar
    18    22    28    1
    19    22    21   ar
    20    20    14    1
    21    20    21   ar
    22    28    27    1
    23    14    13   ar
    24    21    25    1
    25     9    10    1
    26     9    16    1
    27    10     3    1
    28     6     1    1
    29     8     7    1
    30     7     2    1
    31     2     3   ar
    32     2     1   ar
    33     3     4   ar
    34     1     5   ar
    35     5     4   ar
    36     4    11    1
    37    11    12   ar
    38    13    12   ar
    39    13    19    1
    40    25    26    1
    41    25    18    1
    42    12    16    1
    43    19    18    1
    44    16    17    1
