@<TRIPOS>MOLECULE
mol_data/noopt/geoms/mol2/5gd5gd5gd5gd-.out
 38 44 0 0 0
SMALL
GASTEIGER

@<TRIPOS>ATOM
      1 C          -2.0792   -1.7080   -0.0002 C.ar    1  LIG1       -0.0102
      2 C          -0.7020   -1.7080   -0.0002 C.ar    1  LIG1        0.0175
      3 C          -0.1766   -0.3757   -0.0002 C.ar    1  LIG1        0.0080
      4 C          -1.1831    0.5643    0.0006 C.ar    1  LIG1        0.0332
      5 S          -2.6937   -0.1528    0.0006 S.2     1  LIG1       -0.0947
      6 H          -2.8374   -2.7640   -0.0008 H       1  LIG1        0.0704
      7 S           0.0503   -2.7682   -0.0004 S.3     1  LIG1       -0.1417
      8 H           1.3104   -2.4102   -0.0005 H       1  LIG1        0.1071
      9 N           2.2200    0.1162   -0.0015 N.3     1  LIG1       -0.1668
     10 C           1.0969   -0.1143   -0.0009 C.3     1  LIG1        0.1283
     11 C          -1.0166    1.8536    0.0014 C.ar    1  LIG1        0.0408
     12 C           0.1956    2.5069    0.0205 C.ar    1  LIG1        0.0318
     13 C           0.0262    3.9290    0.0147 C.ar    1  LIG1        0.0091
     14 C          -1.3056    4.2790   -0.0075 C.ar    1  LIG1        0.0338
     15 S          -2.2951    2.9311   -0.0215 S.2     1  LIG1       -0.0857
     16 S           1.3606    1.9305    0.0410 S.3     1  LIG1       -0.1055
     17 H           2.3001    2.8435    0.0479 H       1  LIG1        0.1142
     18 N           1.9024    5.4990    0.0418 N.3     1  LIG1       -0.1668
     19 C           1.0231    4.7632    0.0291 C.3     1  LIG1        0.1283
     20 C          -1.7706    5.4930   -0.0170 C.ar    1  LIG1        0.0408
     21 C          -1.0132    6.6432   -0.0232 C.ar    1  LIG1        0.0318
     22 C          -1.8369    7.8147   -0.0340 C.ar    1  LIG1        0.0091
     23 C          -3.1756    7.4910   -0.0345 C.ar    1  LIG1        0.0338
     24 S          -3.4074    5.8350   -0.0232 S.2     1  LIG1       -0.0857
     25 S           0.2860    6.6885   -0.0202 S.3     1  LIG1       -0.1055
     26 H           0.6800    7.9378   -0.0191 H       1  LIG1        0.1142
     27 N          -0.9297   10.0868   -0.0492 N.3     1  LIG1       -0.1668
     28 C          -1.3549    9.0220   -0.0421 C.3     1  LIG1        0.1283
     29 C          -4.1608    8.3391   -0.0426 C.ar    1  LIG1        0.0411
     30 C          -4.0397    9.7110   -0.0479 C.ar    1  LIG1        0.0434
     31 C          -5.3206   10.3514   -0.0572 C.ar    1  LIG1        0.0730
     32 C          -6.3455    9.4315   -0.0576 C.ar    1  LIG1       -0.0052
     33 S          -5.7640    7.8637   -0.0478 S.2     1  LIG1       -0.0937
     34 H          -7.6151    9.7107   -0.0644 H       1  LIG1        0.0707
     35 S          -2.9175   10.3671   -0.0453 S.3     1  LIG1       -0.1046
     36 H          -3.1633   11.6539   -0.0444 H       1  LIG1        0.1142
     37 N          -5.5999   12.7820   -0.0705 N.1     1  LIG1       -0.1908
     38 C          -5.4690   11.6429   -0.0642 C.1     1  LIG1        0.1008
@<TRIPOS>BOND
     1    37    38    3
     2    34    32    1
     3    38    31    1
     4    32    31   ar
     5    32    33   ar
     6    31    30   ar
     7    27    35    1
     8    27    28    1
     9    30    35    1
    10    30    29   ar
    11    33    29   ar
    12    35    36    1
    13    29    23    1
    14    28    22    1
    15    23    22   ar
    16    23    24   ar
    17    22    21   ar
    18    21    25    1
    19    21    20   ar
    20    24    20   ar
    21    15    14   ar
    22    15    11   ar
    23    25    26    1
    24    25    18    1
    25    20    14    1
    26    14    13   ar
    27     9    10    1
    28     9    16    1
    29    10     3    1
    30     6     1    1
    31     8     7    1
    32     7     2    1
    33     2     1   ar
    34     2     3   ar
    35     1     5   ar
    36     3     4   ar
    37     5     4   ar
    38     4    11    1
    39    11    12   ar
    40    13    12   ar
    41    13    19    1
    42    12    16    1
    43    19    18    1
    44    16    17    1
