@<TRIPOS>MOLECULE
mol_data/noopt/geoms/mol2/5gd5gd5gd-.out
 29 33 0 0 0
SMALL
GASTEIGER

@<TRIPOS>ATOM
      1 C          -2.0792   -1.7080   -0.0002 C.ar    1  LIG1       -0.0102
      2 C          -0.7020   -1.7080   -0.0002 C.ar    1  LIG1        0.0175
      3 C          -0.1766   -0.3757   -0.0002 C.ar    1  LIG1        0.0080
      4 C          -1.1831    0.5643    0.0006 C.ar    1  LIG1        0.0332
      5 S          -2.6937   -0.1528    0.0006 S.2     1  LIG1       -0.0947
      6 H          -2.8374   -2.7640   -0.0008 H       1  LIG1        0.0704
      7 S           0.0503   -2.7682   -0.0004 S.3     1  LIG1       -0.1417
      8 H           1.3104   -2.4102   -0.0005 H       1  LIG1        0.1071
      9 N           2.2200    0.1162   -0.0015 N.3     1  LIG1       -0.1668
     10 C           1.0969   -0.1143   -0.0009 C.3     1  LIG1        0.1283
     11 C          -1.0166    1.8536    0.0014 C.ar    1  LIG1        0.0408
     12 C           0.1956    2.5069    0.0205 C.ar    1  LIG1        0.0318
     13 C           0.0262    3.9290    0.0147 C.ar    1  LIG1        0.0091
     14 C          -1.3056    4.2790   -0.0075 C.ar    1  LIG1        0.0338
     15 S          -2.2951    2.9311   -0.0215 S.2     1  LIG1       -0.0857
     16 S           1.3606    1.9305    0.0410 S.3     1  LIG1       -0.1055
     17 H           2.3001    2.8435    0.0479 H       1  LIG1        0.1142
     18 N           1.9024    5.4990    0.0418 N.3     1  LIG1       -0.1668
     19 C           1.0231    4.7632    0.0291 C.3     1  LIG1        0.1283
     20 C          -1.7706    5.4930   -0.0170 C.ar    1  LIG1        0.0411
     21 C          -1.0134    6.6433   -0.0043 C.ar    1  LIG1        0.0434
     22 C          -1.8371    7.8147   -0.0210 C.ar    1  LIG1        0.0730
     23 C          -3.1754    7.4910   -0.0446 C.ar    1  LIG1       -0.0052
     24 S          -3.4072    5.8350   -0.0470 S.2     1  LIG1       -0.0937
     25 H          -4.1606    8.3390   -0.0631 H       1  LIG1        0.0707
     26 S           0.2856    6.6886    0.0196 S.3     1  LIG1       -0.1046
     27 H           0.6794    7.9380    0.0276 H       1  LIG1        0.1142
     28 N          -0.9301   10.0870   -0.0081 N.1     1  LIG1       -0.1908
     29 C          -1.3552    9.0221   -0.0141 C.1     1  LIG1        0.1008
@<TRIPOS>BOND
     1    25    23    1
     2    24    23   ar
     3    24    20   ar
     4    23    22   ar
     5    15    14   ar
     6    15    11   ar
     7    22    29    1
     8    22    21   ar
     9    20    14    1
    10    20    21   ar
    11    29    28    3
    12    14    13   ar
    13    21    26    1
    14     9    10    1
    15     9    16    1
    16    10     3    1
    17     6     1    1
    18     8     7    1
    19     7     2    1
    20     1     2   ar
    21     1     5   ar
    22     2     3   ar
    23     3     4   ar
    24     5     4   ar
    25     4    11    1
    26    11    12   ar
    27    13    12   ar
    28    13    19    1
    29    26    27    1
    30    26    18    1
    31    12    16    1
    32    19    18    1
    33    16    17    1
