@<TRIPOS>MOLECULE
mol_data/noopt/geoms/mol2/5gd5gd.out
 20 22 0 0 0
SMALL
GASTEIGER

@<TRIPOS>ATOM
      1 C          -2.0792   -1.7080   -0.0002 C.ar    1  LIG1       -0.0102
      2 C          -0.7020   -1.7080   -0.0002 C.ar    1  LIG1        0.0175
      3 C          -0.1766   -0.3757   -0.0002 C.ar    1  LIG1        0.0080
      4 C          -1.1831    0.5643    0.0006 C.ar    1  LIG1        0.0332
      5 S          -2.6937   -0.1528    0.0006 S.2     1  LIG1       -0.0947
      6 H          -2.8374   -2.7640   -0.0008 H       1  LIG1        0.0704
      7 S           0.0503   -2.7682   -0.0004 S.3     1  LIG1       -0.1417
      8 H           1.3104   -2.4102   -0.0005 H       1  LIG1        0.1071
      9 N           2.2200    0.1162   -0.0015 N.3     1  LIG1       -0.1668
     10 C           1.0969   -0.1143   -0.0009 C.3     1  LIG1        0.1283
     11 C          -1.0166    1.8536    0.0014 C.ar    1  LIG1        0.0411
     12 C           0.1956    2.5069    0.0205 C.ar    1  LIG1        0.0434
     13 C           0.0262    3.9290    0.0147 C.ar    1  LIG1        0.0730
     14 C          -1.3056    4.2790   -0.0075 C.ar    1  LIG1       -0.0052
     15 S          -2.2951    2.9311   -0.0215 S.2     1  LIG1       -0.0937
     16 H          -1.7706    5.4930   -0.0170 H       1  LIG1        0.0707
     17 S           1.3606    1.9305    0.0410 S.3     1  LIG1       -0.1046
     18 H           2.3001    2.8435    0.0479 H       1  LIG1        0.1142
     19 N           1.9024    5.4990    0.0418 N.1     1  LIG1       -0.1908
     20 C           1.0231    4.7632    0.0291 C.1     1  LIG1        0.1008
@<TRIPOS>BOND
     1    15    14   ar
     2    15    11   ar
     3    16    14    1
     4    14    13   ar
     5     9    10    1
     6     9    17    1
     7    10     3    1
     8     6     1    1
     9     8     7    1
    10     7     2    1
    11     2     3   ar
    12     2     1   ar
    13     3     4   ar
    14     1     5   ar
    15     4     5   ar
    16     4    11    1
    17    11    12   ar
    18    13    12   ar
    19    13    20    1
    20    12    17    1
    21    20    19    3
    22    17    18    1
