@<TRIPOS>MOLECULE
mol_data/noopt/geoms/mol2/5gd5gd-5gd5gd-.out
 38 44 0 0 0
SMALL
GASTEIGER

@<TRIPOS>ATOM
      1 C          -2.0792   -1.7080   -0.0002 C.ar    1  LIG1       -0.0102
      2 C          -0.7020   -1.7080   -0.0002 C.ar    1  LIG1        0.0175
      3 C          -0.1766   -0.3757   -0.0002 C.ar    1  LIG1        0.0080
      4 C          -1.1831    0.5643    0.0006 C.ar    1  LIG1        0.0332
      5 S          -2.6937   -0.1528    0.0006 S.2     1  LIG1       -0.0947
      6 H          -2.8374   -2.7640   -0.0008 H       1  LIG1        0.0704
      7 S           0.0503   -2.7682   -0.0004 S.3     1  LIG1       -0.1417
      8 H           1.3104   -2.4102   -0.0005 H       1  LIG1        0.1071
      9 N           2.2200    0.1162   -0.0015 N.3     1  LIG1       -0.1668
     10 C           1.0969   -0.1143   -0.0009 C.3     1  LIG1        0.1283
     11 C          -1.0166    1.8536    0.0014 C.ar    1  LIG1        0.0408
     12 C           0.1958    2.5069    0.0015 C.ar    1  LIG1        0.0318
     13 C           0.0263    3.9290    0.0017 C.ar    1  LIG1        0.0091
     14 C          -1.3057    4.2790    0.0026 C.ar    1  LIG1        0.0338
     15 S          -2.2953    2.9311    0.0023 S.2     1  LIG1       -0.0857
     16 S           1.3609    1.9305    0.0013 S.3     1  LIG1       -0.1055
     17 H           2.3004    2.8435    0.0012 H       1  LIG1        0.1142
     18 N           1.9027    5.4990    0.0007 N.3     1  LIG1       -0.1668
     19 C           1.0233    4.7632    0.0012 C.3     1  LIG1        0.1283
     20 C          -1.7708    5.4930    0.0035 C.ar    1  LIG1        0.0408
     21 C          -1.0134    6.6433    0.0038 C.ar    1  LIG1        0.0318
     22 C          -1.8373    7.8147    0.0042 C.ar    1  LIG1        0.0091
     23 C          -3.1759    7.4910    0.0050 C.ar    1  LIG1        0.0338
     24 S          -3.4076    5.8350    0.0046 S.2     1  LIG1       -0.0857
     25 S           0.2857    6.6886    0.0035 S.3     1  LIG1       -0.1055
     26 H           0.6797    7.9380    0.0033 H       1  LIG1        0.1142
     27 N          -0.9302   10.0870    0.0034 N.3     1  LIG1       -0.1668
     28 C          -1.3553    9.0221    0.0038 C.3     1  LIG1        0.1283
     29 C          -4.1612    8.3391    0.0062 C.ar    1  LIG1        0.0411
     30 C          -4.0401    9.7109    0.0065 C.ar    1  LIG1        0.0434
     31 C          -5.3211   10.3514    0.0071 C.ar    1  LIG1        0.0730
     32 C          -6.3459    9.4314    0.0079 C.ar    1  LIG1       -0.0052
     33 S          -5.7643    7.8636    0.0073 S.2     1  LIG1       -0.0937
     34 H          -7.6156    9.7105    0.0092 H       1  LIG1        0.0707
     35 S          -2.9180   10.3671    0.0061 S.3     1  LIG1       -0.1046
     36 H          -3.1639   11.6539    0.0060 H       1  LIG1        0.1142
     37 N          -5.6006   12.7820    0.0065 N.1     1  LIG1       -0.1908
     38 C          -5.4696   11.6429    0.0067 C.1     1  LIG1        0.1008
@<TRIPOS>BOND
     1     9    10    1
     2     9    16    1
     3    10     3    1
     4     6     1    1
     5     8     7    1
     6     7     2    1
     7     2     3   ar
     8     2     1   ar
     9     3     4   ar
    10     1     5   ar
    11     4     5   ar
    12     4    11    1
    13    18    19    1
    14    18    25    1
    15    17    16    1
    16    19    13    1
    17    16    12    1
    18    11    12   ar
    19    11    15   ar
    20    12    13   ar
    21    13    14   ar
    22    15    14   ar
    23    14    20    1
    24    26    25    1
    25    27    28    1
    26    27    35    1
    27    25    21    1
    28    20    21   ar
    29    20    24   ar
    30    28    22    1
    31    21    22   ar
    32    22    23   ar
    33    24    23   ar
    34    23    29    1
    35    36    35    1
    36    35    30    1
    37    29    30   ar
    38    29    33   ar
    39    37    38    3
    40    30    31   ar
    41    38    31    1
    42    31    32   ar
    43    33    32   ar
    44    32    34    1
