@<TRIPOS>MOLECULE
mol_data/noopt/geoms/mol2/5gd5gd-5gd-.out
 29 33 0 0 0
SMALL
GASTEIGER

@<TRIPOS>ATOM
      1 C          -2.0792   -1.7080   -0.0002 C.ar    1  LIG1       -0.0102
      2 C          -0.7020   -1.7080   -0.0002 C.ar    1  LIG1        0.0175
      3 C          -0.1766   -0.3757   -0.0002 C.ar    1  LIG1        0.0080
      4 C          -1.1831    0.5643    0.0006 C.ar    1  LIG1        0.0332
      5 S          -2.6937   -0.1528    0.0006 S.2     1  LIG1       -0.0947
      6 H          -2.8374   -2.7640   -0.0008 H       1  LIG1        0.0704
      7 S           0.0503   -2.7682   -0.0004 S.3     1  LIG1       -0.1417
      8 H           1.3104   -2.4102   -0.0005 H       1  LIG1        0.1071
      9 N           2.2200    0.1162   -0.0015 N.3     1  LIG1       -0.1668
     10 C           1.0969   -0.1143   -0.0009 C.3     1  LIG1        0.1283
     11 C          -1.0166    1.8536    0.0014 C.ar    1  LIG1        0.0408
     12 C           0.1958    2.5069    0.0015 C.ar    1  LIG1        0.0318
     13 C           0.0263    3.9290    0.0017 C.ar    1  LIG1        0.0091
     14 C          -1.3057    4.2790    0.0026 C.ar    1  LIG1        0.0338
     15 S          -2.2953    2.9311    0.0023 S.2     1  LIG1       -0.0857
     16 S           1.3609    1.9305    0.0013 S.3     1  LIG1       -0.1055
     17 H           2.3004    2.8435    0.0012 H       1  LIG1        0.1142
     18 N           1.9027    5.4990    0.0007 N.3     1  LIG1       -0.1668
     19 C           1.0233    4.7632    0.0012 C.3     1  LIG1        0.1283
     20 C          -1.7708    5.4930    0.0035 C.ar    1  LIG1        0.0411
     21 C          -1.0136    6.6432    0.0227 C.ar    1  LIG1        0.0434
     22 C          -1.8374    7.8147    0.0172 C.ar    1  LIG1        0.0730
     23 C          -3.1758    7.4910   -0.0051 C.ar    1  LIG1       -0.0052
     24 S          -3.4074    5.8351   -0.0192 S.2     1  LIG1       -0.0937
     25 H          -4.1610    8.3391   -0.0144 H       1  LIG1        0.0707
     26 S           0.2854    6.6885    0.0432 S.3     1  LIG1       -0.1046
     27 H           0.6794    7.9378    0.0501 H       1  LIG1        0.1142
     28 N          -0.9305   10.0869    0.0445 N.1     1  LIG1       -0.1908
     29 C          -1.3555    9.0220    0.0317 C.1     1  LIG1        0.1008
@<TRIPOS>BOND
     1    24    23   ar
     2    24    20   ar
     3    25    23    1
     4    23    22   ar
     5     9    10    1
     6     9    16    1
     7    10     3    1
     8     6     1    1
     9     8     7    1
    10     7     2    1
    11     2     3   ar
    12     2     1   ar
    13     3     4   ar
    14     1     5   ar
    15     4     5   ar
    16     4    11    1
    17    18    19    1
    18    18    26    1
    19    17    16    1
    20    19    13    1
    21    16    12    1
    22    11    12   ar
    23    11    15   ar
    24    12    13   ar
    25    13    14   ar
    26    15    14   ar
    27    14    20    1
    28    20    21   ar
    29    22    21   ar
    30    22    29    1
    31    21    26    1
    32    29    28    3
    33    26    27    1
