@<TRIPOS>MOLECULE
mol_data/noopt/geoms/mol2/5gd5gd-.out
 20 22 0 0 0
SMALL
GASTEIGER

@<TRIPOS>ATOM
      1 C          -2.0792   -1.7080   -0.0002 C.ar    1  LIG1       -0.0102
      2 C          -0.7020   -1.7080   -0.0002 C.ar    1  LIG1        0.0175
      3 C          -0.1766   -0.3757   -0.0002 C.ar    1  LIG1        0.0080
      4 C          -1.1831    0.5643    0.0006 C.ar    1  LIG1        0.0332
      5 S          -2.6937   -0.1528    0.0006 S.2     1  LIG1       -0.0947
      6 H          -2.8374   -2.7640   -0.0008 H       1  LIG1        0.0704
      7 S           0.0503   -2.7682   -0.0004 S.3     1  LIG1       -0.1417
      8 H           1.3104   -2.4102   -0.0005 H       1  LIG1        0.1071
      9 N           2.2200    0.1162   -0.0015 N.3     1  LIG1       -0.1668
     10 C           1.0969   -0.1143   -0.0009 C.3     1  LIG1        0.1283
     11 C          -1.0166    1.8536    0.0014 C.ar    1  LIG1        0.0411
     12 C           0.1958    2.5069    0.0015 C.ar    1  LIG1        0.0434
     13 C           0.0263    3.9290    0.0017 C.ar    1  LIG1        0.0730
     14 C          -1.3057    4.2790    0.0026 C.ar    1  LIG1       -0.0052
     15 S          -2.2953    2.9311    0.0023 S.2     1  LIG1       -0.0937
     16 H          -1.7708    5.4930    0.0035 H       1  LIG1        0.0707
     17 S           1.3609    1.9305    0.0013 S.3     1  LIG1       -0.1046
     18 H           2.3004    2.8435    0.0012 H       1  LIG1        0.1142
     19 N           1.9027    5.4990    0.0007 N.1     1  LIG1       -0.1908
     20 C           1.0233    4.7632    0.0012 C.1     1  LIG1        0.1008
@<TRIPOS>BOND
     1     9    10    1
     2     9    17    1
     3    10     3    1
     4     6     1    1
     5     8     7    1
     6     7     2    1
     7     2     3   ar
     8     2     1   ar
     9     3     4   ar
    10     1     5   ar
    11     4     5   ar
    12     4    11    1
    13    19    20    3
    14    18    17    1
    15    20    13    1
    16    17    12    1
    17    11    12   ar
    18    11    15   ar
    19    12    13   ar
    20    13    14   ar
    21    15    14   ar
    22    14    16    1
