@<TRIPOS>MOLECULE
mol_data/noopt/geoms/mol2/5ge.out
 12 12 0 0 0
SMALL
GASTEIGER

@<TRIPOS>ATOM
      1 C          -2.0792   -1.7080   -0.0002 C.ar    1  LIG1       -0.0099
      2 C          -0.7020   -1.7080   -0.0002 C.ar    1  LIG1        0.0272
      3 C          -0.1766   -0.3757   -0.0002 C.ar    1  LIG1        0.0448
      4 C          -1.1831    0.5643    0.0006 C.ar    1  LIG1       -0.0078
      5 S          -2.6937   -0.1528    0.0006 S.2     1  LIG1       -0.1027
      6 H          -2.8374   -2.7640   -0.0008 H       1  LIG1        0.0705
      7 H          -1.0166    1.8536    0.0014 H       1  LIG1        0.0706
      8 S           0.0503   -2.7682   -0.0004 S.3     1  LIG1       -0.1409
      9 H           1.3104   -2.4102   -0.0005 H       1  LIG1        0.1072
     10 C           1.0969   -0.1143   -0.0009 C.1     1  LIG1       -0.0680
     11 C           2.2735    0.1272   -0.0015 C.1     1  LIG1       -0.1139
     12 H           3.3217    0.3424   -0.0021 H       1  LIG1        0.1232
@<TRIPOS>BOND
     1    12    11    1
     2    11    10    3
     3    10     3    1
     4     6     1    1
     5     9     8    1
     6     8     2    1
     7     1     2   ar
     8     1     5   ar
     9     2     3   ar
    10     3     4   ar
    11     4     5   ar
    12     4     7    1
