@<TRIPOS>MOLECULE
mol_data/noopt/geoms/mol2/5ge5ge5ge-.out
 32 36 0 0 0
SMALL
GASTEIGER

@<TRIPOS>ATOM
      1 C          -2.0792   -1.7080   -0.0002 C.ar    1  LIG1       -0.0093
      2 C          -0.7020   -1.7080   -0.0002 C.ar    1  LIG1        0.0272
      3 C          -0.1766   -0.3757   -0.0002 C.ar    1  LIG1        0.0459
      4 C          -1.1831    0.5643    0.0006 C.ar    1  LIG1        0.0425
      5 S          -2.6937   -0.1528    0.0006 S.2     1  LIG1       -0.0938
      6 H          -2.8374   -2.7640   -0.0008 H       1  LIG1        0.0705
      7 S           0.0503   -2.7682   -0.0004 S.3     1  LIG1       -0.1409
      8 H           1.3104   -2.4102   -0.0005 H       1  LIG1        0.1072
      9 C           1.0969   -0.1143   -0.0009 C.1     1  LIG1       -0.1037
     10 C           2.2735    0.1272   -0.0015 C.2     1  LIG1        0.0064
     11 H           3.3217    0.3424   -0.0021 H       1  LIG1        0.0772
     12 C          -1.0166    1.8536    0.0014 C.2     1  LIG1        0.0377
     13 C           0.1956    2.5069    0.0205 C.2     1  LIG1        0.0273
     14 C           0.0262    3.9290    0.0147 C.2     1  LIG1        0.0322
     15 C          -1.3056    4.2790   -0.0075 C.3     1  LIG1        0.1101
     16 S          -2.2951    2.9311   -0.0215 S.3     1  LIG1       -0.1034
     17 S           1.3606    1.9305    0.0410 S.3     1  LIG1       -0.1591
     18 H           2.3001    2.8435    0.0479 H       1  LIG1        0.1015
     19 C           1.0231    4.7632    0.0291 C.1     1  LIG1       -0.1073
     20 C           1.9443    5.5341    0.0424 C.2     1  LIG1        0.0061
     21 H           2.7648    6.2207    0.0542 H       1  LIG1        0.0772
     22 C          -1.7706    5.4930   -0.0170 C.ar    1  LIG1        0.0271
     23 C          -1.0134    6.6433   -0.0043 C.ar    1  LIG1        0.0275
     24 C          -1.8371    7.8147   -0.0210 C.ar    1  LIG1        0.0447
     25 C          -3.1754    7.4910   -0.0446 C.ar    1  LIG1       -0.0075
     26 S          -3.4072    5.8350   -0.0470 S.2     1  LIG1       -0.0974
     27 H          -4.1606    8.3390   -0.0631 H       1  LIG1        0.0706
     28 S           0.2856    6.6886    0.0196 S.3     1  LIG1       -0.1591
     29 H           0.6794    7.9380    0.0276 H       1  LIG1        0.1015
     30 C          -1.3552    9.0221   -0.0141 C.1     1  LIG1       -0.0680
     31 C          -0.9099   10.1377   -0.0078 C.1     1  LIG1       -0.1139
     32 H          -0.5132   11.1314   -0.0022 H       1  LIG1        0.1232
@<TRIPOS>BOND
     1    27    25    1
     2    26    25   ar
     3    26    22   ar
     4    25    24   ar
     5    16    15    1
     6    16    12    2
     7    24    30    1
     8    24    23   ar
     9    22    15    1
    10    22    23   ar
    11    30    31    3
    12    31    32    1
    13    15    14    1
    14    23    28    1
    15    11    10    1
    16    10     9    2
    17    10    17    1
    18     9     3    2
    19     6     1    1
    20     8     7    1
    21     7     2    1
    22     1     2   ar
    23     1     5   ar
    24     3     2   ar
    25     3     4   ar
    26     5     4   ar
    27     4    12    1
    28    12    13    1
    29    14    13    1
    30    14    19    2
    31    28    29    1
    32    28    20    1
    33    13    17    2
    34    19    20    2
    35    17    18    1
    36    20    21    1
