@<TRIPOS>MOLECULE
mol_data/noopt/geoms/mol2/5ge5ge-5ge-.out
 32 36 0 0 0
SMALL
GASTEIGER

@<TRIPOS>ATOM
      1 C          -2.0792   -1.7080   -0.0002 C.ar    1  LIG1       -0.0093
      2 C          -0.7020   -1.7080   -0.0002 C.ar    1  LIG1        0.0272
      3 C          -0.1766   -0.3757   -0.0002 C.ar    1  LIG1        0.0459
      4 C          -1.1831    0.5643    0.0006 C.ar    1  LIG1        0.0428
      5 S          -2.6937   -0.1528    0.0006 S.2     1  LIG1       -0.0938
      6 H          -2.8374   -2.7640   -0.0008 H       1  LIG1        0.0705
      7 S           0.0503   -2.7682   -0.0004 S.3     1  LIG1       -0.1409
      8 H           1.3104   -2.4102   -0.0005 H       1  LIG1        0.1072
      9 C           1.0969   -0.1143   -0.0009 C.1     1  LIG1       -0.1037
     10 C           2.2735    0.1272   -0.0015 C.2     1  LIG1        0.0064
     11 H           3.3217    0.3424   -0.0021 H       1  LIG1        0.0772
     12 C          -1.0166    1.8536    0.0014 C.ar    1  LIG1        0.0416
     13 C           0.1958    2.5069    0.0015 C.ar    1  LIG1        0.0310
     14 C           0.0263    3.9290    0.0017 C.ar    1  LIG1        0.0462
     15 C          -1.3057    4.2790    0.0026 C.ar    1  LIG1        0.0434
     16 S          -2.2953    2.9311    0.0023 S.2     1  LIG1       -0.0848
     17 S           1.3609    1.9305    0.0013 S.3     1  LIG1       -0.1588
     18 H           2.3004    2.8435    0.0012 H       1  LIG1        0.1015
     19 C           1.0233    4.7632    0.0012 C.1     1  LIG1       -0.1037
     20 C           1.9446    5.5340    0.0007 C.2     1  LIG1        0.0064
     21 H           2.7652    6.2207    0.0002 H       1  LIG1        0.0772
     22 C          -1.7708    5.4930    0.0035 C.ar    1  LIG1        0.0410
     23 C          -1.0136    6.6432    0.0227 C.ar    1  LIG1        0.0309
     24 C          -1.8374    7.8147    0.0172 C.ar    1  LIG1        0.0450
     25 C          -3.1758    7.4910   -0.0051 C.ar    1  LIG1       -0.0072
     26 S          -3.4074    5.8351   -0.0192 S.2     1  LIG1       -0.0938
     27 H          -4.1610    8.3391   -0.0144 H       1  LIG1        0.0706
     28 S           0.2854    6.6885    0.0432 S.3     1  LIG1       -0.1588
     29 H           0.6794    7.9378    0.0501 H       1  LIG1        0.1015
     30 C          -1.3555    9.0220    0.0317 C.1     1  LIG1       -0.0680
     31 C          -0.9102   10.1376    0.0451 C.1     1  LIG1       -0.1139
     32 H          -0.5136   11.1313    0.0570 H       1  LIG1        0.1232
@<TRIPOS>BOND
     1    26    25   ar
     2    26    22   ar
     3    27    25    1
     4    25    24   ar
     5    11    10    1
     6    10     9    2
     7    10    17    1
     8     9     3    2
     9     6     1    1
    10     8     7    1
    11     7     2    1
    12     1     2   ar
    13     1     5   ar
    14     3     2   ar
    15     3     4   ar
    16    21    20    1
    17     5     4   ar
    18     4    12    2
    19    20    19    2
    20    20    28    1
    21    18    17    1
    22    19    14    2
    23    17    13    2
    24    12    13   ar
    25    12    16   ar
    26    13    14   ar
    27    14    15   ar
    28    16    15   ar
    29    15    22    1
    30    22    23   ar
    31    24    23   ar
    32    24    30    1
    33    23    28    1
    34    30    31    3
    35    28    29    1
    36    31    32    1
