@<TRIPOS>MOLECULE
mol_data/noopt/geoms/mol2/5ge5ge.out
 22 24 0 0 0
SMALL
GASTEIGER

@<TRIPOS>ATOM
      1 C          -2.0792   -1.7080   -0.0002 C.ar    1  LIG1       -0.0093
      2 C          -0.7020   -1.7080   -0.0002 C.ar    1  LIG1        0.0272
      3 C          -0.1766   -0.3757   -0.0002 C.ar    1  LIG1        0.0459
      4 C          -1.1831    0.5643    0.0006 C.ar    1  LIG1        0.0428
      5 S          -2.6937   -0.1528    0.0006 S.2     1  LIG1       -0.0938
      6 H          -2.8374   -2.7640   -0.0008 H       1  LIG1        0.0705
      7 S           0.0503   -2.7682   -0.0004 S.3     1  LIG1       -0.1409
      8 H           1.3104   -2.4102   -0.0005 H       1  LIG1        0.1072
      9 C           1.0969   -0.1143   -0.0009 C.1     1  LIG1       -0.1037
     10 C           2.2735    0.1272   -0.0015 C.2     1  LIG1        0.0064
     11 H           3.3217    0.3424   -0.0021 H       1  LIG1        0.0772
     12 C          -1.0166    1.8536    0.0014 C.ar    1  LIG1        0.0410
     13 C           0.1956    2.5069    0.0205 C.ar    1  LIG1        0.0309
     14 C           0.0262    3.9290    0.0147 C.ar    1  LIG1        0.0450
     15 C          -1.3056    4.2790   -0.0075 C.ar    1  LIG1       -0.0072
     16 S          -2.2951    2.9311   -0.0215 S.2     1  LIG1       -0.0938
     17 H          -1.7706    5.4930   -0.0170 H       1  LIG1        0.0706
     18 S           1.3606    1.9305    0.0410 S.3     1  LIG1       -0.1588
     19 H           2.3001    2.8435    0.0479 H       1  LIG1        0.1015
     20 C           1.0231    4.7632    0.0291 C.1     1  LIG1       -0.0680
     21 C           1.9443    5.5341    0.0424 C.1     1  LIG1       -0.1139
     22 H           2.7648    6.2207    0.0542 H       1  LIG1        0.1232
@<TRIPOS>BOND
     1    16    15   ar
     2    16    12   ar
     3    17    15    1
     4    15    14   ar
     5    11    10    1
     6    10     9    2
     7    10    18    1
     8     9     3    2
     9     6     1    1
    10     8     7    1
    11     7     2    1
    12     2     3   ar
    13     2     1   ar
    14     3     4   ar
    15     1     5   ar
    16     4     5   ar
    17     4    12    1
    18    12    13   ar
    19    14    13   ar
    20    14    20    1
    21    13    18    1
    22    20    21    3
    23    18    19    1
    24    21    22    1
