@<TRIPOS>MOLECULE
mol_data/noopt/geoms/mol2/5ge5ge5ge-5ge.out
 42 48 0 0 0
SMALL
GASTEIGER

@<TRIPOS>ATOM
      1 C          -2.0792   -1.7080   -0.0002 C.ar    1  LIG1       -0.0093
      2 C          -0.7020   -1.7080   -0.0002 C.ar    1  LIG1        0.0272
      3 C          -0.1766   -0.3757   -0.0002 C.ar    1  LIG1        0.0459
      4 C          -1.1831    0.5643    0.0006 C.ar    1  LIG1        0.0428
      5 S          -2.6937   -0.1528    0.0006 S.2     1  LIG1       -0.0938
      6 H          -2.8374   -2.7640   -0.0008 H       1  LIG1        0.0705
      7 S           0.0503   -2.7682   -0.0004 S.3     1  LIG1       -0.1409
      8 H           1.3104   -2.4102   -0.0005 H       1  LIG1        0.1072
      9 C           1.0969   -0.1143   -0.0009 C.1     1  LIG1       -0.1037
     10 C           2.2735    0.1272   -0.0015 C.2     1  LIG1        0.0064
     11 H           3.3217    0.3424   -0.0021 H       1  LIG1        0.0772
     12 C          -1.0166    1.8536    0.0014 C.ar    1  LIG1        0.0416
     13 C           0.1956    2.5069    0.0205 C.ar    1  LIG1        0.0310
     14 C           0.0262    3.9290    0.0147 C.ar    1  LIG1        0.0462
     15 C          -1.3056    4.2790   -0.0075 C.ar    1  LIG1        0.0434
     16 S          -2.2951    2.9311   -0.0215 S.2     1  LIG1       -0.0848
     17 S           1.3606    1.9305    0.0410 S.3     1  LIG1       -0.1588
     18 H           2.3001    2.8435    0.0479 H       1  LIG1        0.1015
     19 C           1.0231    4.7632    0.0291 C.1     1  LIG1       -0.1037
     20 C           1.9443    5.5341    0.0424 C.2     1  LIG1        0.0064
     21 H           2.7648    6.2207    0.0542 H       1  LIG1        0.0772
     22 C          -1.7706    5.4930   -0.0170 C.ar    1  LIG1        0.0416
     23 C          -1.0134    6.6433   -0.0043 C.ar    1  LIG1        0.0310
     24 C          -1.8371    7.8147   -0.0210 C.ar    1  LIG1        0.0462
     25 C          -3.1754    7.4910   -0.0446 C.ar    1  LIG1        0.0434
     26 S          -3.4072    5.8350   -0.0470 S.2     1  LIG1       -0.0848
     27 S           0.2856    6.6886    0.0196 S.3     1  LIG1       -0.1588
     28 H           0.6794    7.9380    0.0276 H       1  LIG1        0.1015
     29 C          -1.3552    9.0221   -0.0141 C.1     1  LIG1       -0.1037
     30 C          -0.9099   10.1377   -0.0078 C.2     1  LIG1        0.0064
     31 H          -0.5132   11.1314   -0.0022 H       1  LIG1        0.0772
     32 C          -4.1606    8.3390   -0.0631 C.ar    1  LIG1        0.0410
     33 C          -4.0397    9.7109   -0.0560 C.ar    1  LIG1        0.0309
     34 C          -5.3204   10.3513   -0.0823 C.ar    1  LIG1        0.0450
     35 C          -6.3449    9.4313   -0.1072 C.ar    1  LIG1       -0.0072
     36 S          -5.7633    7.8636   -0.0994 S.2     1  LIG1       -0.0938
     37 H          -7.6143    9.7105   -0.1337 H       1  LIG1        0.0706
     38 S          -2.9178   10.3671   -0.0292 S.3     1  LIG1       -0.1588
     39 H          -3.1640   11.6537   -0.0202 H       1  LIG1        0.1015
     40 C          -5.4689   11.6428   -0.0821 C.1     1  LIG1       -0.0680
     41 C          -5.6062   12.8362   -0.0819 C.1     1  LIG1       -0.1139
     42 H          -5.7284   13.8991   -0.0818 H       1  LIG1        0.1232
@<TRIPOS>BOND
     1    37    35    1
     2    35    36   ar
     3    35    34   ar
     4    36    32   ar
     5    34    40    1
     6    34    33   ar
     7    40    41    3
     8    41    42    1
     9    32    33   ar
    10    32    25    1
    11    33    38    1
    12    26    25   ar
    13    26    22   ar
    14    25    24   ar
    15    38    39    1
    16    38    30    1
    17    16    15   ar
    18    16    12   ar
    19    24    29    2
    20    24    23   ar
    21    22    15    2
    22    22    23   ar
    23    29    30    2
    24    30    31    1
    25    15    14   ar
    26    23    27    2
    27    11    10    1
    28    10     9    2
    29    10    17    1
    30     9     3    2
    31     6     1    1
    32     8     7    1
    33     7     2    1
    34     2     3   ar
    35     2     1   ar
    36     3     4   ar
    37     1     5   ar
    38     5     4   ar
    39     4    12    1
    40    12    13   ar
    41    14    13   ar
    42    14    19    2
    43    27    28    1
    44    27    20    1
    45    13    17    2
    46    19    20    2
    47    17    18    1
    48    20    21    1
