@<TRIPOS>MOLECULE
mol_data/noopt/geoms/mol2/5ge5ge5ge5ge.out
 42 48 0 0 0
SMALL
GASTEIGER

@<TRIPOS>ATOM
      1 C          -2.0792   -1.7080   -0.0002 C.ar    1  LIG1       -0.0093
      2 C          -0.7020   -1.7080   -0.0002 C.ar    1  LIG1        0.0272
      3 C          -0.1766   -0.3757   -0.0002 C.ar    1  LIG1        0.0459
      4 C          -1.1831    0.5643    0.0006 C.ar    1  LIG1        0.0428
      5 S          -2.6937   -0.1528    0.0006 S.2     1  LIG1       -0.0938
      6 H          -2.8374   -2.7640   -0.0008 H       1  LIG1        0.0705
      7 S           0.0503   -2.7682   -0.0004 S.3     1  LIG1       -0.1409
      8 H           1.3104   -2.4102   -0.0005 H       1  LIG1        0.1072
      9 C           1.0969   -0.1143   -0.0009 C.1     1  LIG1       -0.1037
     10 C           2.2735    0.1272   -0.0015 C.2     1  LIG1        0.0064
     11 H           3.3217    0.3424   -0.0021 H       1  LIG1        0.0772
     12 C          -1.0166    1.8536    0.0014 C.ar    1  LIG1        0.0416
     13 C           0.1956    2.5069    0.0205 C.ar    1  LIG1        0.0310
     14 C           0.0262    3.9290    0.0147 C.ar    1  LIG1        0.0462
     15 C          -1.3056    4.2790   -0.0075 C.ar    1  LIG1        0.0434
     16 S          -2.2951    2.9311   -0.0215 S.2     1  LIG1       -0.0848
     17 S           1.3606    1.9305    0.0410 S.3     1  LIG1       -0.1588
     18 H           2.3001    2.8435    0.0479 H       1  LIG1        0.1015
     19 C           1.0231    4.7632    0.0291 C.1     1  LIG1       -0.1037
     20 C           1.9443    5.5341    0.0424 C.2     1  LIG1        0.0064
     21 H           2.7648    6.2207    0.0542 H       1  LIG1        0.0772
     22 C          -1.7706    5.4930   -0.0170 C.ar    1  LIG1        0.0416
     23 C          -1.0132    6.6432   -0.0232 C.ar    1  LIG1        0.0310
     24 C          -1.8369    7.8147   -0.0340 C.ar    1  LIG1        0.0462
     25 C          -3.1756    7.4910   -0.0345 C.ar    1  LIG1        0.0434
     26 S          -3.4074    5.8350   -0.0232 S.2     1  LIG1       -0.0848
     27 S           0.2860    6.6885   -0.0202 S.3     1  LIG1       -0.1588
     28 H           0.6800    7.9378   -0.0191 H       1  LIG1        0.1015
     29 C          -1.3549    9.0220   -0.0421 C.1     1  LIG1       -0.1037
     30 C          -0.9095   10.1375   -0.0495 C.2     1  LIG1        0.0064
     31 H          -0.5127   11.1312   -0.0562 H       1  LIG1        0.0772
     32 C          -4.1608    8.3391   -0.0426 C.ar    1  LIG1        0.0410
     33 C          -4.0399    9.7109   -0.0290 C.ar    1  LIG1        0.0309
     34 C          -5.3207   10.3514   -0.0442 C.ar    1  LIG1        0.0450
     35 C          -6.3454    9.4315   -0.0677 C.ar    1  LIG1       -0.0072
     36 S          -5.7637    7.8638   -0.0716 S.2     1  LIG1       -0.0938
     37 H          -7.6149    9.7107   -0.0849 H       1  LIG1        0.0706
     38 S          -2.9179   10.3670   -0.0056 S.3     1  LIG1       -0.1588
     39 H          -3.1639   11.6537    0.0023 H       1  LIG1        0.1015
     40 C          -5.4693   11.6429   -0.0363 C.1     1  LIG1       -0.0680
     41 C          -5.6065   12.8362   -0.0290 C.1     1  LIG1       -0.1139
     42 H          -5.7288   13.8992   -0.0226 H       1  LIG1        0.1232
@<TRIPOS>BOND
     1    37    35    1
     2    36    35   ar
     3    36    32   ar
     4    35    34   ar
     5    31    30    1
     6    30    29    2
     7    30    38    1
     8    34    40    1
     9    34    33   ar
    10    32    25    1
    11    32    33   ar
    12    29    24    2
    13    40    41    3
    14    25    24   ar
    15    25    26   ar
    16    24    23   ar
    17    41    42    1
    18    33    38    1
    19    23    27    2
    20    23    22   ar
    21    26    22   ar
    22    16    15   ar
    23    16    12   ar
    24    27    28    1
    25    27    20    1
    26    22    15    2
    27    15    14   ar
    28    38    39    1
    29    11    10    1
    30    10     9    2
    31    10    17    1
    32     9     3    2
    33     6     1    1
    34     8     7    1
    35     7     2    1
    36     2     3   ar
    37     2     1   ar
    38     3     4   ar
    39     1     5   ar
    40     5     4   ar
    41     4    12    1
    42    12    13   ar
    43    14    13   ar
    44    14    19    2
    45    13    17    2
    46    19    20    2
    47    17    18    1
    48    20    21    1
