@<TRIPOS>MOLECULE
mol_data/noopt/geoms/mol2/5ge5ge-5ge5ge.out
 42 48 0 0 0
SMALL
GASTEIGER

@<TRIPOS>ATOM
      1 C          -2.0792   -1.7080   -0.0002 C.ar    1  LIG1       -0.0093
      2 C          -0.7020   -1.7080   -0.0002 C.ar    1  LIG1        0.0272
      3 C          -0.1766   -0.3757   -0.0002 C.ar    1  LIG1        0.0459
      4 C          -1.1831    0.5643    0.0006 C.ar    1  LIG1        0.0428
      5 S          -2.6937   -0.1528    0.0006 S.2     1  LIG1       -0.0938
      6 H          -2.8374   -2.7640   -0.0008 H       1  LIG1        0.0705
      7 S           0.0503   -2.7682   -0.0004 S.3     1  LIG1       -0.1409
      8 H           1.3104   -2.4102   -0.0005 H       1  LIG1        0.1072
      9 C           1.0969   -0.1143   -0.0009 C.1     1  LIG1       -0.1037
     10 C           2.2735    0.1272   -0.0015 C.2     1  LIG1        0.0064
     11 H           3.3217    0.3424   -0.0021 H       1  LIG1        0.0772
     12 C          -1.0166    1.8536    0.0014 C.ar    1  LIG1        0.0416
     13 C           0.1958    2.5069    0.0015 C.ar    1  LIG1        0.0310
     14 C           0.0263    3.9290    0.0017 C.ar    1  LIG1        0.0461
     15 C          -1.3057    4.2790    0.0026 C.ar    1  LIG1        0.0431
     16 S          -2.2953    2.9311    0.0023 S.2     1  LIG1       -0.0848
     17 S           1.3609    1.9305    0.0013 S.3     1  LIG1       -0.1588
     18 H           2.3004    2.8435    0.0012 H       1  LIG1        0.1015
     19 C           1.0233    4.7632    0.0012 C.1     1  LIG1       -0.1037
     20 C           1.9446    5.5340    0.0007 C.2     1  LIG1        0.0064
     21 H           2.7652    6.2207    0.0002 H       1  LIG1        0.0772
     22 C          -1.7708    5.4930    0.0035 C.2     1  LIG1        0.0377
     23 C          -1.0134    6.6433    0.0038 C.2     1  LIG1        0.0273
     24 C          -1.8373    7.8147    0.0042 C.2     1  LIG1        0.0322
     25 C          -3.1759    7.4910    0.0050 C.3     1  LIG1        0.1101
     26 S          -3.4076    5.8350    0.0046 S.3     1  LIG1       -0.1034
     27 S           0.2857    6.6886    0.0035 S.3     1  LIG1       -0.1591
     28 H           0.6797    7.9380    0.0033 H       1  LIG1        0.1015
     29 C          -1.3553    9.0221    0.0038 C.1     1  LIG1       -0.1073
     30 C          -0.9100   10.1377    0.0034 C.2     1  LIG1        0.0061
     31 H          -0.5133   11.1315    0.0030 H       1  LIG1        0.0772
     32 C          -4.1612    8.3391    0.0062 C.ar    1  LIG1        0.0271
     33 C          -4.0402    9.7108    0.0254 C.ar    1  LIG1        0.0275
     34 C          -5.3212   10.3513    0.0201 C.ar    1  LIG1        0.0447
     35 C          -6.3459    9.4314   -0.0022 C.ar    1  LIG1       -0.0075
     36 S          -5.7642    7.8638   -0.0165 S.2     1  LIG1       -0.0974
     37 H          -7.6155    9.7107   -0.0114 H       1  LIG1        0.0706
     38 S          -2.9182   10.3669    0.0458 S.3     1  LIG1       -0.1591
     39 H          -3.1640   11.6536    0.0527 H       1  LIG1        0.1015
     40 C          -5.4697   11.6427    0.0347 C.1     1  LIG1       -0.0680
     41 C          -5.6070   12.8360    0.0482 C.1     1  LIG1       -0.1139
     42 H          -5.7292   13.8989    0.0602 H       1  LIG1        0.1232
@<TRIPOS>BOND
     1    36    35   ar
     2    36    32   ar
     3    37    35    1
     4    35    34   ar
     5    11    10    1
     6    10     9    2
     7    10    17    1
     8     9     3    2
     9     6     1    1
    10     8     7    1
    11     7     2    1
    12     2     3   ar
    13     2     1   ar
    14     3     4   ar
    15     1     5   ar
    16    21    20    1
    17     5     4   ar
    18     4    12    2
    19    20    19    2
    20    20    27    1
    21    18    17    1
    22    19    14    2
    23    17    13    2
    24    12    13   ar
    25    12    16   ar
    26    13    14   ar
    27    14    15   ar
    28    16    15   ar
    29    15    22    1
    30    31    30    1
    31    28    27    1
    32    30    29    2
    33    30    38    1
    34    27    23    2
    35    22    23    1
    36    22    26    2
    37    29    24    2
    38    23    24    1
    39    24    25    1
    40    26    25    1
    41    25    32    1
    42    32    33   ar
    43    34    33   ar
    44    34    40    1
    45    33    38    1
    46    40    41    3
    47    38    39    1
    48    41    42    1
