@<TRIPOS>MOLECULE
mol_data/noopt/geoms/mol2/5ge5ge-5ge5ge-.out
 42 48 0 0 0
SMALL
GASTEIGER

@<TRIPOS>ATOM
      1 C          -2.0792   -1.7080   -0.0002 C.ar    1  LIG1       -0.0093
      2 C          -0.7020   -1.7080   -0.0002 C.ar    1  LIG1        0.0272
      3 C          -0.1766   -0.3757   -0.0002 C.ar    1  LIG1        0.0459
      4 C          -1.1831    0.5643    0.0006 C.ar    1  LIG1        0.0428
      5 S          -2.6937   -0.1528    0.0006 S.2     1  LIG1       -0.0938
      6 H          -2.8374   -2.7640   -0.0008 H       1  LIG1        0.0705
      7 S           0.0503   -2.7682   -0.0004 S.3     1  LIG1       -0.1409
      8 H           1.3104   -2.4102   -0.0005 H       1  LIG1        0.1072
      9 C           1.0969   -0.1143   -0.0009 C.1     1  LIG1       -0.1037
     10 C           2.2735    0.1272   -0.0015 C.2     1  LIG1        0.0064
     11 H           3.3217    0.3424   -0.0021 H       1  LIG1        0.0772
     12 C          -1.0166    1.8536    0.0014 C.ar    1  LIG1        0.0416
     13 C           0.1958    2.5069    0.0015 C.ar    1  LIG1        0.0310
     14 C           0.0263    3.9290    0.0017 C.ar    1  LIG1        0.0461
     15 C          -1.3057    4.2790    0.0026 C.ar    1  LIG1        0.0431
     16 S          -2.2953    2.9311    0.0023 S.2     1  LIG1       -0.0848
     17 S           1.3609    1.9305    0.0013 S.3     1  LIG1       -0.1588
     18 H           2.3004    2.8435    0.0012 H       1  LIG1        0.1015
     19 C           1.0233    4.7632    0.0012 C.1     1  LIG1       -0.1037
     20 C           1.9446    5.5340    0.0007 C.2     1  LIG1        0.0064
     21 H           2.7652    6.2207    0.0002 H       1  LIG1        0.0772
     22 C          -1.7708    5.4930    0.0035 C.2     1  LIG1        0.0377
     23 C          -1.0134    6.6433    0.0038 C.2     1  LIG1        0.0273
     24 C          -1.8373    7.8147    0.0042 C.2     1  LIG1        0.0322
     25 C          -3.1759    7.4910    0.0050 C.3     1  LIG1        0.1101
     26 S          -3.4076    5.8350    0.0046 S.3     1  LIG1       -0.1034
     27 S           0.2857    6.6886    0.0035 S.3     1  LIG1       -0.1591
     28 H           0.6797    7.9380    0.0033 H       1  LIG1        0.1015
     29 C          -1.3553    9.0221    0.0038 C.1     1  LIG1       -0.1073
     30 C          -0.9100   10.1377    0.0034 C.2     1  LIG1        0.0061
     31 H          -0.5133   11.1315    0.0030 H       1  LIG1        0.0772
     32 C          -4.1612    8.3391    0.0062 C.ar    1  LIG1        0.0271
     33 C          -4.0401    9.7109    0.0065 C.ar    1  LIG1        0.0275
     34 C          -5.3211   10.3514    0.0071 C.ar    1  LIG1        0.0447
     35 C          -6.3459    9.4314    0.0079 C.ar    1  LIG1       -0.0075
     36 S          -5.7643    7.8636    0.0073 S.2     1  LIG1       -0.0974
     37 H          -7.6156    9.7105    0.0092 H       1  LIG1        0.0706
     38 S          -2.9180   10.3671    0.0061 S.3     1  LIG1       -0.1591
     39 H          -3.1639   11.6539    0.0060 H       1  LIG1        0.1015
     40 C          -5.4696   11.6429    0.0067 C.1     1  LIG1       -0.0680
     41 C          -5.6068   12.8362    0.0065 C.1     1  LIG1       -0.1139
     42 H          -5.7290   13.8992    0.0062 H       1  LIG1        0.1232
@<TRIPOS>BOND
     1    11    10    1
     2    10     9    2
     3    10    17    1
     4     9     3    2
     5     6     1    1
     6     8     7    1
     7     7     2    1
     8     2     3   ar
     9     2     1   ar
    10     3     4   ar
    11     1     5   ar
    12    21    20    1
    13     4     5   ar
    14     4    12    2
    15    20    19    2
    16    20    27    1
    17    18    17    1
    18    19    14    2
    19    17    13    2
    20    12    13   ar
    21    12    16   ar
    22    13    14   ar
    23    14    15   ar
    24    16    15   ar
    25    15    22    1
    26    31    30    1
    27    28    27    1
    28    30    29    2
    29    30    38    1
    30    27    23    2
    31    22    23    1
    32    22    26    2
    33    29    24    2
    34    23    24    1
    35    24    25    1
    36    26    25    1
    37    25    32    1
    38    39    38    1
    39    38    33    1
    40    32    33   ar
    41    32    36   ar
    42    42    41    1
    43    41    40    3
    44    33    34   ar
    45    40    34    1
    46    34    35   ar
    47    36    35   ar
    48    35    37    1
