@<TRIPOS>MOLECULE
mol_data/noopt/geoms/mol2/5ge5ge-5ge-5ge-.out
 42 48 0 0 0
SMALL
GASTEIGER

@<TRIPOS>ATOM
      1 C          -2.0792   -1.7080   -0.0002 C.ar    1  LIG1       -0.0093
      2 C          -0.7020   -1.7080   -0.0002 C.ar    1  LIG1        0.0272
      3 C          -0.1766   -0.3757   -0.0002 C.ar    1  LIG1        0.0459
      4 C          -1.1831    0.5643    0.0006 C.ar    1  LIG1        0.0428
      5 S          -2.6937   -0.1528    0.0006 S.2     1  LIG1       -0.0938
      6 H          -2.8374   -2.7640   -0.0008 H       1  LIG1        0.0705
      7 S           0.0503   -2.7682   -0.0004 S.3     1  LIG1       -0.1409
      8 H           1.3104   -2.4102   -0.0005 H       1  LIG1        0.1072
      9 C           1.0969   -0.1143   -0.0009 C.1     1  LIG1       -0.1037
     10 C           2.2735    0.1272   -0.0015 C.2     1  LIG1        0.0064
     11 H           3.3217    0.3424   -0.0021 H       1  LIG1        0.0772
     12 C          -1.0166    1.8536    0.0014 C.ar    1  LIG1        0.0416
     13 C           0.1958    2.5069    0.0015 C.ar    1  LIG1        0.0310
     14 C           0.0263    3.9290    0.0017 C.ar    1  LIG1        0.0461
     15 C          -1.3057    4.2790    0.0026 C.ar    1  LIG1        0.0431
     16 S          -2.2953    2.9311    0.0023 S.2     1  LIG1       -0.0848
     17 S           1.3609    1.9305    0.0013 S.3     1  LIG1       -0.1588
     18 H           2.3004    2.8435    0.0012 H       1  LIG1        0.1015
     19 C           1.0233    4.7632    0.0012 C.1     1  LIG1       -0.1037
     20 C           1.9446    5.5340    0.0007 C.2     1  LIG1        0.0064
     21 H           2.7652    6.2207    0.0002 H       1  LIG1        0.0772
     22 C          -1.7708    5.4930    0.0035 C.2     1  LIG1        0.0377
     23 C          -1.0136    6.6432    0.0227 C.2     1  LIG1        0.0273
     24 C          -1.8374    7.8147    0.0172 C.2     1  LIG1        0.0322
     25 C          -3.1758    7.4910   -0.0051 C.3     1  LIG1        0.1101
     26 S          -3.4074    5.8351   -0.0192 S.3     1  LIG1       -0.1034
     27 S           0.2854    6.6885    0.0432 S.3     1  LIG1       -0.1591
     28 H           0.6794    7.9378    0.0501 H       1  LIG1        0.1015
     29 C          -1.3555    9.0220    0.0317 C.1     1  LIG1       -0.1073
     30 C          -0.9102   10.1376    0.0451 C.2     1  LIG1        0.0061
     31 H          -0.5136   11.1313    0.0570 H       1  LIG1        0.0772
     32 C          -4.1610    8.3391   -0.0144 C.ar    1  LIG1        0.0271
     33 C          -4.0399    9.7110   -0.0205 C.ar    1  LIG1        0.0275
     34 C          -5.3208   10.3515   -0.0311 C.ar    1  LIG1        0.0447
     35 C          -6.3457    9.4315   -0.0316 C.ar    1  LIG1       -0.0075
     36 S          -5.7642    7.8638   -0.0205 S.2     1  LIG1       -0.0974
     37 H          -7.6153    9.7107   -0.0396 H       1  LIG1        0.0706
     38 S          -2.9177   10.3671   -0.0175 S.3     1  LIG1       -0.1591
     39 H          -3.1635   11.6539   -0.0165 H       1  LIG1        0.1015
     40 C          -5.4692   11.6430   -0.0391 C.1     1  LIG1       -0.0680
     41 C          -5.6063   12.8363   -0.0464 C.1     1  LIG1       -0.1139
     42 H          -5.7284   13.8993   -0.0530 H       1  LIG1        0.1232
@<TRIPOS>BOND
     1    42    41    1
     2    41    40    3
     3    37    35    1
     4    40    34    1
     5    35    34   ar
     6    35    36   ar
     7    34    33   ar
     8    33    38    1
     9    33    32   ar
    10    36    32   ar
    11    26    25    1
    12    26    22    2
    13    38    39    1
    14    38    30    1
    15    32    25    1
    16    25    24    1
    17    11    10    1
    18    10     9    2
    19    10    17    1
    20     9     3    2
    21     6     1    1
    22     8     7    1
    23     7     2    1
    24     1     2   ar
    25     1     5   ar
    26     2     3   ar
    27     3     4   ar
    28    21    20    1
    29     4     5   ar
    30     4    12    2
    31    20    19    2
    32    20    27    1
    33    18    17    1
    34    19    14    2
    35    17    13    2
    36    12    13   ar
    37    12    16   ar
    38    13    14   ar
    39    14    15   ar
    40    16    15   ar
    41    15    22    1
    42    22    23    1
    43    24    23    1
    44    24    29    2
    45    23    27    2
    46    29    30    2
    47    27    28    1
    48    30    31    1
