@<TRIPOS>MOLECULE
mol_data/noopt/geoms/mol2/5gf.out
 11 11 0 0 0
SMALL
GASTEIGER

@<TRIPOS>ATOM
      1 C          -2.0792   -1.7080   -0.0002 C.ar    1  LIG1       -0.0075
      2 C          -0.7020   -1.7080   -0.0002 C.ar    1  LIG1        0.0533
      3 C          -0.1766   -0.3757   -0.0002 C.ar    1  LIG1        0.1369
      4 C          -1.1831    0.5643    0.0006 C.ar    1  LIG1        0.0183
      5 S          -2.6937   -0.1528    0.0006 S.2     1  LIG1       -0.1002
      6 H          -2.8374   -2.7640   -0.0008 H       1  LIG1        0.0705
      7 H          -1.0166    1.8536    0.0014 H       1  LIG1        0.0730
      8 S           0.0503   -2.7682   -0.0004 S.3     1  LIG1       -0.1386
      9 H           1.3104   -2.4102   -0.0005 H       1  LIG1        0.1072
     10 O           1.0969   -0.1143   -0.0009 O.3     1  LIG1       -0.5051
     11 H           1.2288    0.8366   -0.0011 H       1  LIG1        0.2922
@<TRIPOS>BOND
     1    11    10    1
     2    10     3    1
     3     6     1    1
     4     9     8    1
     5     8     2    1
     6     1     2   ar
     7     1     5   ar
     8     2     3   ar
     9     3     4   ar
    10     4     5   ar
    11     4     7    1
