@<TRIPOS>MOLECULE
mol_data/noopt/geoms/mol2/5gf5gf5gf5gf.out
 38 41 0 0 0
SMALL
GASTEIGER

@<TRIPOS>ATOM
      1 C          -2.0792   -1.7080   -0.0002 C.ar    1  LIG1       -0.0069
      2 C          -0.7020   -1.7080   -0.0002 C.ar    1  LIG1        0.0539
      3 C          -0.1766   -0.3757   -0.0002 C.ar    1  LIG1        0.1452
      4 C          -1.1831    0.5643    0.0006 C.ar    1  LIG1        0.0696
      5 S          -2.6937   -0.1528    0.0006 S.2     1  LIG1       -0.0912
      6 H          -2.8374   -2.7640   -0.0008 H       1  LIG1        0.0706
      7 S           0.0503   -2.7682   -0.0004 S.3     1  LIG1       -0.1386
      8 H           1.3104   -2.4102   -0.0005 H       1  LIG1        0.1072
      9 O           1.0969   -0.1143   -0.0009 O.3     1  LIG1       -0.5045
     10 H           1.2288    0.8366   -0.0011 H       1  LIG1        0.2922
     11 C          -1.0166    1.8536    0.0014 C.ar    1  LIG1        0.0468
     12 C           0.1956    2.5069    0.0205 C.ar    1  LIG1        0.0623
     13 C           0.0262    3.9290    0.0147 C.ar    1  LIG1        0.1458
     14 C          -1.3056    4.2790   -0.0075 C.ar    1  LIG1        0.0702
     15 S          -2.2951    2.9311   -0.0215 S.2     1  LIG1       -0.0822
     16 S           1.3606    1.9305    0.0410 S.3     1  LIG1       -0.1380
     17 H           2.3001    2.8435    0.0479 H       1  LIG1        0.1072
     18 O           1.0231    4.7633    0.0291 O.3     1  LIG1       -0.5045
     19 H           0.6881    5.6629    0.0327 H       1  LIG1        0.2922
     20 C          -1.7706    5.4930   -0.0170 C.ar    1  LIG1        0.0468
     21 C          -1.0132    6.6432   -0.0232 C.ar    1  LIG1        0.0623
     22 C          -1.8369    7.8147   -0.0340 C.ar    1  LIG1        0.1458
     23 C          -3.1756    7.4910   -0.0345 C.ar    1  LIG1        0.0701
     24 S          -3.4074    5.8350   -0.0232 S.2     1  LIG1       -0.0822
     25 S           0.2860    6.6885   -0.0202 S.3     1  LIG1       -0.1380
     26 H           0.6800    7.9378   -0.0191 H       1  LIG1        0.1072
     27 O          -1.3549    9.0220   -0.0421 O.3     1  LIG1       -0.5045
     28 H          -2.0765    9.6551   -0.0441 H       1  LIG1        0.2922
     29 C          -4.1608    8.3391   -0.0426 C.ar    1  LIG1        0.0462
     30 C          -4.0399    9.7109   -0.0290 C.ar    1  LIG1        0.0617
     31 C          -5.3207   10.3514   -0.0442 C.ar    1  LIG1        0.1376
     32 C          -6.3454    9.4315   -0.0677 C.ar    1  LIG1        0.0189
     33 S          -5.7637    7.8638   -0.0716 S.2     1  LIG1       -0.0912
     34 H          -7.6149    9.7107   -0.0849 H       1  LIG1        0.0731
     35 S          -2.9179   10.3670   -0.0056 S.3     1  LIG1       -0.1380
     36 H          -3.1639   11.6537    0.0023 H       1  LIG1        0.1072
     37 O          -5.4693   11.6429   -0.0363 O.3     1  LIG1       -0.5051
     38 H          -6.4049   11.8578   -0.0344 H       1  LIG1        0.2922
@<TRIPOS>BOND
     1    34    32    1
     2    33    32   ar
     3    33    29   ar
     4    32    31   ar
     5    31    37    1
     6    31    30   ar
     7    28    27    1
     8    29    23    1
     9    29    30   ar
    10    27    22    1
    11    37    38    1
    12    23    22   ar
    13    23    24   ar
    14    22    21   ar
    15    30    35    1
    16    21    25    1
    17    21    20   ar
    18    24    20   ar
    19    15    14   ar
    20    15    11   ar
    21    25    26    1
    22    20    14    1
    23    14    13   ar
    24    35    36    1
    25    10     9    1
    26     9     3    1
    27     6     1    1
    28     8     7    1
    29     7     2    1
    30     2     3   ar
    31     2     1   ar
    32     3     4   ar
    33     1     5   ar
    34     5     4   ar
    35     4    11    1
    36    11    12   ar
    37    13    12   ar
    38    13    18    1
    39    12    16    1
    40    18    19    1
    41    16    17    1
