@<TRIPOS>MOLECULE
mol_data/noopt/geoms/mol2/5gf5gf-5gf-.out
 29 31 0 0 0
SMALL
GASTEIGER

@<TRIPOS>ATOM
      1 C          -2.0792   -1.7080   -0.0002 C.ar    1  LIG1       -0.0069
      2 C          -0.7020   -1.7080   -0.0002 C.ar    1  LIG1        0.0539
      3 C          -0.1766   -0.3757   -0.0002 C.ar    1  LIG1        0.1452
      4 C          -1.1831    0.5643    0.0006 C.ar    1  LIG1        0.0696
      5 S          -2.6937   -0.1528    0.0006 S.2     1  LIG1       -0.0912
      6 H          -2.8374   -2.7640   -0.0008 H       1  LIG1        0.0706
      7 S           0.0503   -2.7682   -0.0004 S.3     1  LIG1       -0.1386
      8 H           1.3104   -2.4102   -0.0005 H       1  LIG1        0.1072
      9 O           1.0969   -0.1143   -0.0009 O.3     1  LIG1       -0.5045
     10 H           1.2288    0.8366   -0.0011 H       1  LIG1        0.2922
     11 C          -1.0166    1.8536    0.0014 C.ar    1  LIG1        0.0468
     12 C           0.1958    2.5069    0.0015 C.ar    1  LIG1        0.0623
     13 C           0.0263    3.9290    0.0017 C.ar    1  LIG1        0.1458
     14 C          -1.3057    4.2790    0.0026 C.ar    1  LIG1        0.0701
     15 S          -2.2953    2.9311    0.0023 S.2     1  LIG1       -0.0822
     16 S           1.3609    1.9305    0.0013 S.3     1  LIG1       -0.1380
     17 H           2.3004    2.8435    0.0012 H       1  LIG1        0.1072
     18 O           1.0233    4.7633    0.0012 O.3     1  LIG1       -0.5045
     19 H           0.6884    5.6629    0.0010 H       1  LIG1        0.2922
     20 C          -1.7708    5.4930    0.0035 C.ar    1  LIG1        0.0462
     21 C          -1.0136    6.6432    0.0227 C.ar    1  LIG1        0.0617
     22 C          -1.8374    7.8147    0.0172 C.ar    1  LIG1        0.1376
     23 C          -3.1758    7.4910   -0.0051 C.ar    1  LIG1        0.0189
     24 S          -3.4074    5.8351   -0.0192 S.2     1  LIG1       -0.0912
     25 H          -4.1610    8.3391   -0.0144 H       1  LIG1        0.0731
     26 S           0.2854    6.6885    0.0432 S.3     1  LIG1       -0.1380
     27 H           0.6794    7.9378    0.0501 H       1  LIG1        0.1072
     28 O          -1.3555    9.0221    0.0317 O.3     1  LIG1       -0.5051
     29 H          -2.0772    9.6551    0.0353 H       1  LIG1        0.2922
@<TRIPOS>BOND
     1    24    23   ar
     2    24    20   ar
     3    25    23    1
     4    23    22   ar
     5    10     9    1
     6     9     3    1
     7     6     1    1
     8     8     7    1
     9     7     2    1
    10     2     3   ar
    11     2     1   ar
    12     3     4   ar
    13     1     5   ar
    14     4     5   ar
    15     4    11    1
    16    19    18    1
    17    17    16    1
    18    18    13    1
    19    16    12    1
    20    11    12   ar
    21    11    15   ar
    22    12    13   ar
    23    13    14   ar
    24    15    14   ar
    25    14    20    1
    26    20    21   ar
    27    22    21   ar
    28    22    28    1
    29    21    26    1
    30    28    29    1
    31    26    27    1
