@<TRIPOS>MOLECULE
mol_data/noopt/geoms/mol2/5gf5gf-5gf5gf.out
 38 41 0 0 0
SMALL
GASTEIGER

@<TRIPOS>ATOM
      1 C          -2.0792   -1.7080   -0.0002 C.ar    1  LIG1       -0.0069
      2 C          -0.7020   -1.7080   -0.0002 C.ar    1  LIG1        0.0539
      3 C          -0.1766   -0.3757   -0.0002 C.ar    1  LIG1        0.1452
      4 C          -1.1831    0.5643    0.0006 C.ar    1  LIG1        0.0696
      5 S          -2.6937   -0.1528    0.0006 S.2     1  LIG1       -0.0912
      6 H          -2.8374   -2.7640   -0.0008 H       1  LIG1        0.0706
      7 S           0.0503   -2.7682   -0.0004 S.3     1  LIG1       -0.1386
      8 H           1.3104   -2.4102   -0.0005 H       1  LIG1        0.1072
      9 O           1.0969   -0.1143   -0.0009 O.3     1  LIG1       -0.5045
     10 H           1.2288    0.8366   -0.0011 H       1  LIG1        0.2922
     11 C          -1.0166    1.8536    0.0014 C.ar    1  LIG1        0.0468
     12 C           0.1958    2.5069    0.0015 C.ar    1  LIG1        0.0623
     13 C           0.0263    3.9290    0.0017 C.ar    1  LIG1        0.1458
     14 C          -1.3057    4.2790    0.0026 C.ar    1  LIG1        0.0702
     15 S          -2.2953    2.9311    0.0023 S.2     1  LIG1       -0.0822
     16 S           1.3609    1.9305    0.0013 S.3     1  LIG1       -0.1380
     17 H           2.3004    2.8435    0.0012 H       1  LIG1        0.1072
     18 O           1.0233    4.7633    0.0012 O.3     1  LIG1       -0.5045
     19 H           0.6884    5.6629    0.0010 H       1  LIG1        0.2922
     20 C          -1.7708    5.4930    0.0035 C.ar    1  LIG1        0.0468
     21 C          -1.0134    6.6433    0.0038 C.ar    1  LIG1        0.0623
     22 C          -1.8373    7.8147    0.0042 C.ar    1  LIG1        0.1458
     23 C          -3.1759    7.4910    0.0050 C.ar    1  LIG1        0.0701
     24 S          -3.4076    5.8350    0.0046 S.2     1  LIG1       -0.0822
     25 S           0.2857    6.6886    0.0035 S.3     1  LIG1       -0.1380
     26 H           0.6797    7.9380    0.0033 H       1  LIG1        0.1072
     27 O          -1.3553    9.0221    0.0038 O.3     1  LIG1       -0.5045
     28 H          -2.0770    9.6552    0.0036 H       1  LIG1        0.2922
     29 C          -4.1612    8.3391    0.0062 C.ar    1  LIG1        0.0462
     30 C          -4.0402    9.7108    0.0254 C.ar    1  LIG1        0.0617
     31 C          -5.3212   10.3513    0.0201 C.ar    1  LIG1        0.1376
     32 C          -6.3459    9.4314   -0.0022 C.ar    1  LIG1        0.0189
     33 S          -5.7642    7.8638   -0.0165 S.2     1  LIG1       -0.0912
     34 H          -7.6155    9.7107   -0.0114 H       1  LIG1        0.0731
     35 S          -2.9182   10.3669    0.0458 S.3     1  LIG1       -0.1380
     36 H          -3.1640   11.6536    0.0527 H       1  LIG1        0.1072
     37 O          -5.4697   11.6427    0.0347 O.3     1  LIG1       -0.5051
     38 H          -6.4054   11.8576    0.0383 H       1  LIG1        0.2922
@<TRIPOS>BOND
     1    33    32   ar
     2    33    29   ar
     3    34    32    1
     4    32    31   ar
     5    10     9    1
     6     9     3    1
     7     6     1    1
     8     8     7    1
     9     7     2    1
    10     2     3   ar
    11     2     1   ar
    12     3     4   ar
    13     1     5   ar
    14     4     5   ar
    15     4    11    1
    16    19    18    1
    17    17    16    1
    18    18    13    1
    19    16    12    1
    20    11    12   ar
    21    11    15   ar
    22    12    13   ar
    23    13    14   ar
    24    15    14   ar
    25    14    20    1
    26    26    25    1
    27    25    21    1
    28    20    21   ar
    29    20    24   ar
    30    28    27    1
    31    27    22    1
    32    21    22   ar
    33    22    23   ar
    34    24    23   ar
    35    23    29    1
    36    29    30   ar
    37    31    30   ar
    38    31    37    1
    39    30    35    1
    40    37    38    1
    41    35    36    1
