@<TRIPOS>MOLECULE
mol_data/noopt/geoms/mol2/5gf5gf5gf-5gf.out
 38 41 0 0 0
SMALL
GASTEIGER

@<TRIPOS>ATOM
      1 C          -2.0792   -1.7080   -0.0002 C.ar    1  LIG1       -0.0069
      2 C          -0.7020   -1.7080   -0.0002 C.ar    1  LIG1        0.0539
      3 C          -0.1766   -0.3757   -0.0002 C.ar    1  LIG1        0.1452
      4 C          -1.1831    0.5643    0.0006 C.ar    1  LIG1        0.0696
      5 S          -2.6937   -0.1528    0.0006 S.2     1  LIG1       -0.0912
      6 H          -2.8374   -2.7640   -0.0008 H       1  LIG1        0.0706
      7 S           0.0503   -2.7682   -0.0004 S.3     1  LIG1       -0.1386
      8 H           1.3104   -2.4102   -0.0005 H       1  LIG1        0.1072
      9 O           1.0969   -0.1143   -0.0009 O.3     1  LIG1       -0.5045
     10 H           1.2288    0.8366   -0.0011 H       1  LIG1        0.2922
     11 C          -1.0166    1.8536    0.0014 C.ar    1  LIG1        0.0468
     12 C           0.1956    2.5069    0.0205 C.ar    1  LIG1        0.0623
     13 C           0.0262    3.9290    0.0147 C.ar    1  LIG1        0.1458
     14 C          -1.3056    4.2790   -0.0075 C.ar    1  LIG1        0.0702
     15 S          -2.2951    2.9311   -0.0215 S.2     1  LIG1       -0.0822
     16 S           1.3606    1.9305    0.0410 S.3     1  LIG1       -0.1380
     17 H           2.3001    2.8435    0.0479 H       1  LIG1        0.1072
     18 O           1.0231    4.7633    0.0291 O.3     1  LIG1       -0.5045
     19 H           0.6881    5.6629    0.0327 H       1  LIG1        0.2922
     20 C          -1.7706    5.4930   -0.0170 C.ar    1  LIG1        0.0468
     21 C          -1.0134    6.6433   -0.0043 C.ar    1  LIG1        0.0623
     22 C          -1.8371    7.8147   -0.0210 C.ar    1  LIG1        0.1458
     23 C          -3.1754    7.4910   -0.0446 C.ar    1  LIG1        0.0701
     24 S          -3.4072    5.8350   -0.0470 S.2     1  LIG1       -0.0822
     25 S           0.2856    6.6886    0.0196 S.3     1  LIG1       -0.1380
     26 H           0.6794    7.9380    0.0276 H       1  LIG1        0.1072
     27 O          -1.3551    9.0221   -0.0141 O.3     1  LIG1       -0.5045
     28 H          -2.0768    9.6552   -0.0124 H       1  LIG1        0.2922
     29 C          -4.1606    8.3390   -0.0631 C.ar    1  LIG1        0.0462
     30 C          -4.0397    9.7109   -0.0560 C.ar    1  LIG1        0.0617
     31 C          -5.3204   10.3513   -0.0823 C.ar    1  LIG1        0.1376
     32 C          -6.3449    9.4313   -0.1072 C.ar    1  LIG1        0.0189
     33 S          -5.7633    7.8636   -0.0994 S.2     1  LIG1       -0.0912
     34 H          -7.6143    9.7105   -0.1337 H       1  LIG1        0.0731
     35 S          -2.9178   10.3671   -0.0292 S.3     1  LIG1       -0.1380
     36 H          -3.1640   11.6537   -0.0202 H       1  LIG1        0.1072
     37 O          -5.4689   11.6429   -0.0821 O.3     1  LIG1       -0.5051
     38 H          -6.4046   11.8578   -0.0821 H       1  LIG1        0.2922
@<TRIPOS>BOND
     1    34    32    1
     2    32    33   ar
     3    32    31   ar
     4    33    29   ar
     5    31    37    1
     6    31    30   ar
     7    37    38    1
     8    29    30   ar
     9    29    23    1
    10    30    35    1
    11    24    23   ar
    12    24    20   ar
    13    23    22   ar
    14    35    36    1
    15    15    14   ar
    16    15    11   ar
    17    22    27    1
    18    22    21   ar
    19    20    14    1
    20    20    21   ar
    21    27    28    1
    22    14    13   ar
    23    21    25    1
    24    10     9    1
    25     9     3    1
    26     6     1    1
    27     8     7    1
    28     7     2    1
    29     2     3   ar
    30     2     1   ar
    31     3     4   ar
    32     1     5   ar
    33     5     4   ar
    34     4    11    1
    35    11    12   ar
    36    13    12   ar
    37    13    18    1
    38    25    26    1
    39    12    16    1
    40    18    19    1
    41    16    17    1
