@<TRIPOS>MOLECULE
mol_data/noopt/geoms/mol2/5gg5gg-5gg-5gg.out
 38 41 0 0 0
SMALL
GASTEIGER

@<TRIPOS>ATOM
      1 C          -2.0792   -1.7080   -0.0002 C.2     1  LIG1       -0.0094
      2 C          -0.7020   -1.7080   -0.0002 C.2     1  LIG1        0.0266
      3 C          -0.1766   -0.3757   -0.0002 C.2     1  LIG1        0.0474
      4 C          -1.1831    0.5643    0.0006 C.2     1  LIG1        0.0422
      5 S          -2.6937   -0.1528    0.0006 S.3     1  LIG1       -0.0938
      6 H          -2.8374   -2.7640   -0.0008 H       1  LIG1        0.0705
      7 S           0.0503   -2.7682   -0.0004 S.3     1  LIG1       -0.1410
      8 H           1.3104   -2.4102   -0.0005 H       1  LIG1        0.1072
      9 S           1.0968   -0.1143   -0.0009 S.2     1  LIG1       -0.0497
     10 H           1.2768    1.1833   -0.0011 H       1  LIG1        0.0929
     11 C          -1.0166    1.8536    0.0014 C.2     1  LIG1        0.0409
     12 C           0.1958    2.5069    0.0015 C.2     1  LIG1        0.0234
     13 C           0.0263    3.9290    0.0017 C.2     1  LIG1        0.0471
     14 C          -1.3057    4.2790    0.0026 C.2     1  LIG1        0.0425
     15 S          -2.2953    2.9311    0.0023 S.3     1  LIG1       -0.0849
     16 S           1.3609    1.9305    0.0013 S.3     1  LIG1       -0.2055
     17 H           2.3004    2.8435    0.0012 H       1  LIG1        0.0929
     18 S           1.0233    4.7632    0.0012 S.2     1  LIG1       -0.0497
     19 H           0.5662    5.9909    0.0010 H       1  LIG1        0.0929
     20 C          -1.7708    5.4930    0.0035 C.2     1  LIG1        0.0370
     21 C          -1.0136    6.6432    0.0227 C.2     1  LIG1        0.0197
     22 C          -1.8374    7.8147    0.0172 C.2     1  LIG1        0.0331
     23 C          -3.1758    7.4910   -0.0051 C.3     1  LIG1        0.1095
     24 S          -3.4074    5.8351   -0.0192 S.3     1  LIG1       -0.1035
     25 S           0.2854    6.6885    0.0432 S.3     1  LIG1       -0.2057
     26 H           0.6794    7.9378    0.0501 H       1  LIG1        0.0929
     27 S          -1.3555    9.0220    0.0317 S.2     1  LIG1       -0.0537
     28 H          -2.3403    9.8858    0.0366 H       1  LIG1        0.0929
     29 C          -4.1610    8.3391   -0.0144 C.ar    1  LIG1        0.0263
     30 C          -4.0401    9.7110   -0.0016 C.ar    1  LIG1        0.0183
     31 C          -5.3209   10.3515   -0.0181 C.ar    1  LIG1        0.0243
     32 C          -6.3455    9.4316   -0.0417 C.ar    1  LIG1       -0.0098
     33 S          -5.7639    7.8638   -0.0443 S.2     1  LIG1       -0.0976
     34 H          -7.6151    9.7108   -0.0601 H       1  LIG1        0.0705
     35 S          -2.9181   10.3671    0.0222 S.3     1  LIG1       -0.2058
     36 H          -3.1641   11.6538    0.0303 H       1  LIG1        0.0929
     37 S          -5.4695   11.6429   -0.0111 S.3     1  LIG1       -0.1411
     38 H          -6.7462   11.9362   -0.0088 H       1  LIG1        0.1072
@<TRIPOS>BOND
     1    34    32    1
     2    33    32   ar
     3    33    29   ar
     4    32    31   ar
     5    24    23    1
     6    24    20    2
     7    31    37    1
     8    31    30   ar
     9    29    23    1
    10    29    30   ar
    11    37    38    1
    12    23    22    1
    13    30    35    1
    14    10    16    1
    15     9     3    2
    16     6     1    1
    17     8     7    1
    18     7     2    1
    19     1     2    2
    20     1     5    1
    21     2     3    1
    22     3     4    1
    23     4     5    2
    24     4    11    1
    25    19    25    1
    26    17    16    1
    27    18    13    2
    28    16    12    1
    29    11    12    2
    30    11    15    1
    31    12    13    1
    32    13    14    1
    33    15    14    2
    34    14    20    1
    35    20    21    1
    36    22    21    1
    37    22    27    2
    38    35    36    1
    39    35    28    1
    40    21    25    2
    41    25    26    1
