@<TRIPOS>MOLECULE
mol_data/noopt/geoms/mol2/5gg5gg5gg-5gg.out
 38 41 0 0 0
SMALL
GASTEIGER

@<TRIPOS>ATOM
      1 C          -2.0792   -1.7080   -0.0002 C.2     1  LIG1       -0.0094
      2 C          -0.7020   -1.7080   -0.0002 C.2     1  LIG1        0.0266
      3 C          -0.1766   -0.3757   -0.0002 C.2     1  LIG1        0.0474
      4 C          -1.1831    0.5643    0.0006 C.2     1  LIG1        0.0422
      5 S          -2.6937   -0.1528    0.0006 S.3     1  LIG1       -0.0938
      6 H          -2.8374   -2.7640   -0.0008 H       1  LIG1        0.0705
      7 S           0.0503   -2.7682   -0.0004 S.3     1  LIG1       -0.1410
      8 H           1.3104   -2.4102   -0.0005 H       1  LIG1        0.1072
      9 S           1.0968   -0.1143   -0.0009 S.2     1  LIG1       -0.0497
     10 H           1.2768    1.1833   -0.0011 H       1  LIG1        0.0929
     11 C          -1.0166    1.8536    0.0014 C.2     1  LIG1        0.0409
     12 C           0.1956    2.5069    0.0205 C.2     1  LIG1        0.0234
     13 C           0.0262    3.9290    0.0147 C.2     1  LIG1        0.0471
     14 C          -1.3056    4.2790   -0.0075 C.2     1  LIG1        0.0428
     15 S          -2.2951    2.9311   -0.0215 S.3     1  LIG1       -0.0849
     16 S           1.3606    1.9305    0.0410 S.3     1  LIG1       -0.2055
     17 H           2.3001    2.8435    0.0479 H       1  LIG1        0.0929
     18 S           1.0231    4.7632    0.0291 S.2     1  LIG1       -0.0497
     19 H           0.5659    5.9908    0.0339 H       1  LIG1        0.0929
     20 C          -1.7706    5.4930   -0.0170 C.2     1  LIG1        0.0410
     21 C          -1.0134    6.6433   -0.0043 C.2     1  LIG1        0.0234
     22 C          -1.8371    7.8147   -0.0210 C.2     1  LIG1        0.0471
     23 C          -3.1754    7.4910   -0.0446 C.2     1  LIG1        0.0428
     24 S          -3.4072    5.8350   -0.0470 S.3     1  LIG1       -0.0849
     25 S           0.2856    6.6886    0.0196 S.3     1  LIG1       -0.2055
     26 H           0.6794    7.9380    0.0276 H       1  LIG1        0.0929
     27 S          -1.3552    9.0221   -0.0141 S.2     1  LIG1       -0.0497
     28 H          -2.3400    9.8859   -0.0118 H       1  LIG1        0.0929
     29 C          -4.1606    8.3390   -0.0631 C.ar    1  LIG1        0.0403
     30 C          -4.0397    9.7109   -0.0560 C.ar    1  LIG1        0.0217
     31 C          -5.3204   10.3513   -0.0823 C.ar    1  LIG1        0.0246
     32 C          -6.3449    9.4313   -0.1072 C.ar    1  LIG1       -0.0095
     33 S          -5.7633    7.8636   -0.0994 S.2     1  LIG1       -0.0939
     34 H          -7.6143    9.7105   -0.1337 H       1  LIG1        0.0705
     35 S          -2.9178   10.3671   -0.0292 S.3     1  LIG1       -0.2055
     36 H          -3.1640   11.6537   -0.0202 H       1  LIG1        0.0929
     37 S          -5.4689   11.6428   -0.0821 S.3     1  LIG1       -0.1411
     38 H          -6.7457   11.9361   -0.0821 H       1  LIG1        0.1072
@<TRIPOS>BOND
     1    34    32    1
     2    32    33   ar
     3    32    31   ar
     4    33    29   ar
     5    31    37    1
     6    31    30   ar
     7    37    38    1
     8    29    30   ar
     9    29    23    1
    10    30    35    1
    11    24    23    2
    12    24    20    1
    13    23    22    1
    14    35    36    1
    15    35    28    1
    16    15    14    1
    17    15    11    2
    18    22    27    2
    19    22    21    1
    20    20    14    2
    21    20    21    1
    22    14    13    1
    23    21    25    2
    24    10    16    1
    25     9     3    2
    26     6     1    1
    27     8     7    1
    28     7     2    1
    29     2     3    1
    30     2     1    2
    31     3     4    1
    32     1     5    1
    33     5     4    2
    34     4    11    1
    35    11    12    1
    36    13    12    1
    37    13    18    2
    38    25    26    1
    39    25    19    1
    40    12    16    2
    41    16    17    1
