@<TRIPOS>MOLECULE
mol_data/noopt/geoms/mol2/5gg5gg5gg-.out
 29 31 0 0 0
SMALL
GASTEIGER

@<TRIPOS>ATOM
      1 C          -2.0792   -1.7080   -0.0002 C.2     1  LIG1       -0.0094
      2 C          -0.7020   -1.7080   -0.0002 C.2     1  LIG1        0.0266
      3 C          -0.1766   -0.3757   -0.0002 C.2     1  LIG1        0.0474
      4 C          -1.1831    0.5643    0.0006 C.2     1  LIG1        0.0419
      5 S          -2.6937   -0.1528    0.0006 S.3     1  LIG1       -0.0938
      6 H          -2.8374   -2.7640   -0.0008 H       1  LIG1        0.0705
      7 S           0.0503   -2.7682   -0.0004 S.3     1  LIG1       -0.1410
      8 H           1.3104   -2.4102   -0.0005 H       1  LIG1        0.1072
      9 S           1.0968   -0.1143   -0.0009 S.2     1  LIG1       -0.0497
     10 H           1.2768    1.1833   -0.0011 H       1  LIG1        0.0929
     11 C          -1.0166    1.8536    0.0014 C.2     1  LIG1        0.0370
     12 C           0.1956    2.5069    0.0205 C.2     1  LIG1        0.0197
     13 C           0.0262    3.9290    0.0147 C.2     1  LIG1        0.0331
     14 C          -1.3056    4.2790   -0.0075 C.3     1  LIG1        0.1095
     15 S          -2.2951    2.9311   -0.0215 S.3     1  LIG1       -0.1035
     16 S           1.3606    1.9305    0.0410 S.3     1  LIG1       -0.2057
     17 H           2.3001    2.8435    0.0479 H       1  LIG1        0.0929
     18 S           1.0231    4.7632    0.0291 S.2     1  LIG1       -0.0537
     19 H           0.5659    5.9908    0.0339 H       1  LIG1        0.0929
     20 C          -1.7706    5.4930   -0.0170 C.ar    1  LIG1        0.0263
     21 C          -1.0134    6.6433   -0.0043 C.ar    1  LIG1        0.0183
     22 C          -1.8371    7.8147   -0.0210 C.ar    1  LIG1        0.0243
     23 C          -3.1754    7.4910   -0.0446 C.ar    1  LIG1       -0.0098
     24 S          -3.4072    5.8350   -0.0470 S.2     1  LIG1       -0.0976
     25 H          -4.1606    8.3390   -0.0631 H       1  LIG1        0.0705
     26 S           0.2856    6.6886    0.0196 S.3     1  LIG1       -0.2058
     27 H           0.6794    7.9380    0.0276 H       1  LIG1        0.0929
     28 S          -1.3552    9.0221   -0.0141 S.3     1  LIG1       -0.1411
     29 H          -2.3400    9.8859   -0.0118 H       1  LIG1        0.1072
@<TRIPOS>BOND
     1    25    23    1
     2    24    23   ar
     3    24    20   ar
     4    23    22   ar
     5    15    14    1
     6    15    11    2
     7    22    28    1
     8    22    21   ar
     9    20    14    1
    10    20    21   ar
    11    28    29    1
    12    14    13    1
    13    21    26    1
    14    10    16    1
    15     9     3    2
    16     6     1    1
    17     8     7    1
    18     7     2    1
    19     1     2    2
    20     1     5    1
    21     2     3    1
    22     3     4    1
    23     5     4    2
    24     4    11    1
    25    11    12    1
    26    13    12    1
    27    13    18    2
    28    26    27    1
    29    26    19    1
    30    12    16    2
    31    16    17    1
