@<TRIPOS>MOLECULE
mol_data/noopt/geoms/mol2/5gg5gg5gg5gg.out
 38 41 0 0 0
SMALL
GASTEIGER

@<TRIPOS>ATOM
      1 C          -2.0792   -1.7080   -0.0002 C.2     1  LIG1       -0.0094
      2 C          -0.7020   -1.7080   -0.0002 C.2     1  LIG1        0.0266
      3 C          -0.1766   -0.3757   -0.0002 C.2     1  LIG1        0.0474
      4 C          -1.1831    0.5643    0.0006 C.2     1  LIG1        0.0419
      5 S          -2.6937   -0.1528    0.0006 S.3     1  LIG1       -0.0938
      6 H          -2.8374   -2.7640   -0.0008 H       1  LIG1        0.0705
      7 S           0.0503   -2.7682   -0.0004 S.3     1  LIG1       -0.1410
      8 H           1.3104   -2.4102   -0.0005 H       1  LIG1        0.1072
      9 S           1.0968   -0.1143   -0.0009 S.2     1  LIG1       -0.0497
     10 H           1.2768    1.1833   -0.0011 H       1  LIG1        0.0929
     11 C          -1.0166    1.8536    0.0014 C.2     1  LIG1        0.0370
     12 C           0.1956    2.5069    0.0205 C.2     1  LIG1        0.0197
     13 C           0.0262    3.9290    0.0147 C.2     1  LIG1        0.0331
     14 C          -1.3056    4.2790   -0.0075 C.3     1  LIG1        0.1095
     15 S          -2.2951    2.9311   -0.0215 S.3     1  LIG1       -0.1035
     16 S           1.3606    1.9305    0.0410 S.3     1  LIG1       -0.2057
     17 H           2.3001    2.8435    0.0479 H       1  LIG1        0.0929
     18 S           1.0231    4.7632    0.0291 S.2     1  LIG1       -0.0537
     19 H           0.5659    5.9908    0.0339 H       1  LIG1        0.0929
     20 C          -1.7706    5.4930   -0.0170 C.2     1  LIG1        0.0270
     21 C          -1.0132    6.6432   -0.0232 C.2     1  LIG1        0.0200
     22 C          -1.8369    7.8147   -0.0340 C.2     1  LIG1        0.0468
     23 C          -3.1756    7.4910   -0.0345 C.2     1  LIG1        0.0425
     24 S          -3.4074    5.8350   -0.0232 S.3     1  LIG1       -0.0886
     25 S           0.2860    6.6885   -0.0202 S.3     1  LIG1       -0.2057
     26 H           0.6800    7.9378   -0.0191 H       1  LIG1        0.0929
     27 S          -1.3549    9.0219   -0.0421 S.2     1  LIG1       -0.0497
     28 H          -2.3396    9.8859   -0.0448 H       1  LIG1        0.0929
     29 C          -4.1608    8.3391   -0.0426 C.ar    1  LIG1        0.0403
     30 C          -4.0399    9.7109   -0.0290 C.ar    1  LIG1        0.0217
     31 C          -5.3207   10.3514   -0.0442 C.ar    1  LIG1        0.0246
     32 C          -6.3454    9.4315   -0.0677 C.ar    1  LIG1       -0.0095
     33 S          -5.7637    7.8638   -0.0716 S.2     1  LIG1       -0.0939
     34 H          -7.6149    9.7107   -0.0849 H       1  LIG1        0.0705
     35 S          -2.9179   10.3670   -0.0056 S.3     1  LIG1       -0.2055
     36 H          -3.1639   11.6537    0.0023 H       1  LIG1        0.0929
     37 S          -5.4693   11.6428   -0.0363 S.3     1  LIG1       -0.1411
     38 H          -6.7460   11.9361   -0.0337 H       1  LIG1        0.1072
@<TRIPOS>BOND
     1    34    32    1
     2    33    32   ar
     3    33    29   ar
     4    32    31   ar
     5    28    35    1
     6    31    37    1
     7    31    30   ar
     8    29    23    1
     9    29    30   ar
    10    27    22    2
    11    37    38    1
    12    23    22    1
    13    23    24    2
    14    22    21    1
    15    30    35    1
    16    21    25    1
    17    21    20    2
    18    24    20    1
    19    15    14    1
    20    15    11    2
    21    25    26    1
    22    25    19    1
    23    20    14    1
    24    14    13    1
    25    35    36    1
    26    10    16    1
    27     9     3    2
    28     6     1    1
    29     8     7    1
    30     7     2    1
    31     2     3    1
    32     2     1    2
    33     3     4    1
    34     1     5    1
    35     5     4    2
    36     4    11    1
    37    11    12    1
    38    13    12    1
    39    13    18    2
    40    12    16    2
    41    16    17    1
