@<TRIPOS>MOLECULE
mol_data/noopt/geoms/mol2/5gg5gg-5gg5gg-.out
 38 41 0 0 0
SMALL
GASTEIGER

@<TRIPOS>ATOM
      1 C          -2.0792   -1.7080   -0.0002 C.2     1  LIG1       -0.0094
      2 C          -0.7020   -1.7080   -0.0002 C.2     1  LIG1        0.0266
      3 C          -0.1766   -0.3757   -0.0002 C.2     1  LIG1        0.0474
      4 C          -1.1831    0.5643    0.0006 C.2     1  LIG1        0.0422
      5 S          -2.6937   -0.1528    0.0006 S.3     1  LIG1       -0.0938
      6 H          -2.8374   -2.7640   -0.0008 H       1  LIG1        0.0705
      7 S           0.0503   -2.7682   -0.0004 S.3     1  LIG1       -0.1410
      8 H           1.3104   -2.4102   -0.0005 H       1  LIG1        0.1072
      9 S           1.0968   -0.1143   -0.0009 S.2     1  LIG1       -0.0497
     10 H           1.2768    1.1833   -0.0011 H       1  LIG1        0.0929
     11 C          -1.0166    1.8536    0.0014 C.2     1  LIG1        0.0409
     12 C           0.1958    2.5069    0.0015 C.2     1  LIG1        0.0234
     13 C           0.0263    3.9290    0.0017 C.2     1  LIG1        0.0471
     14 C          -1.3057    4.2790    0.0026 C.2     1  LIG1        0.0428
     15 S          -2.2953    2.9311    0.0023 S.3     1  LIG1       -0.0849
     16 S           1.3609    1.9305    0.0013 S.3     1  LIG1       -0.2055
     17 H           2.3004    2.8435    0.0012 H       1  LIG1        0.0929
     18 S           1.0233    4.7632    0.0012 S.2     1  LIG1       -0.0497
     19 H           0.5662    5.9909    0.0010 H       1  LIG1        0.0929
     20 C          -1.7708    5.4930    0.0035 C.2     1  LIG1        0.0410
     21 C          -1.0134    6.6433    0.0038 C.2     1  LIG1        0.0234
     22 C          -1.8373    7.8147    0.0042 C.2     1  LIG1        0.0471
     23 C          -3.1759    7.4910    0.0050 C.2     1  LIG1        0.0428
     24 S          -3.4076    5.8350    0.0046 S.3     1  LIG1       -0.0849
     25 S           0.2857    6.6886    0.0035 S.3     1  LIG1       -0.2055
     26 H           0.6797    7.9380    0.0033 H       1  LIG1        0.0929
     27 S          -1.3553    9.0221    0.0038 S.2     1  LIG1       -0.0497
     28 H          -2.3401    9.8860    0.0036 H       1  LIG1        0.0929
     29 C          -4.1612    8.3391    0.0062 C.ar    1  LIG1        0.0403
     30 C          -4.0401    9.7109    0.0065 C.ar    1  LIG1        0.0217
     31 C          -5.3211   10.3514    0.0071 C.ar    1  LIG1        0.0246
     32 C          -6.3459    9.4314    0.0079 C.ar    1  LIG1       -0.0095
     33 S          -5.7643    7.8636    0.0073 S.2     1  LIG1       -0.0939
     34 H          -7.6156    9.7105    0.0092 H       1  LIG1        0.0705
     35 S          -2.9180   10.3671    0.0061 S.3     1  LIG1       -0.2055
     36 H          -3.1639   11.6539    0.0060 H       1  LIG1        0.0929
     37 S          -5.4696   11.6428    0.0067 S.3     1  LIG1       -0.1411
     38 H          -6.7463   11.9362    0.0066 H       1  LIG1        0.1072
@<TRIPOS>BOND
     1    10    16    1
     2     9     3    2
     3     6     1    1
     4     8     7    1
     5     7     2    1
     6     2     3    1
     7     2     1    2
     8     3     4    1
     9     1     5    1
    10     4     5    2
    11     4    11    1
    12    19    25    1
    13    17    16    1
    14    18    13    2
    15    16    12    1
    16    11    12    2
    17    11    15    1
    18    12    13    1
    19    13    14    1
    20    15    14    2
    21    14    20    1
    22    26    25    1
    23    25    21    1
    24    20    21    2
    25    20    24    1
    26    28    35    1
    27    27    22    2
    28    21    22    1
    29    22    23    1
    30    24    23    2
    31    23    29    1
    32    36    35    1
    33    35    30    1
    34    29    30   ar
    35    29    33   ar
    36    30    31   ar
    37    38    37    1
    38    37    31    1
    39    31    32   ar
    40    33    32   ar
    41    32    34    1
