@<TRIPOS>MOLECULE
mol_data/noopt/geoms/mol2/5gg5gg-.out
 20 21 0 0 0
SMALL
GASTEIGER

@<TRIPOS>ATOM
      1 C          -2.0792   -1.7080   -0.0002 C.2     1  LIG1       -0.0094
      2 C          -0.7020   -1.7080   -0.0002 C.2     1  LIG1        0.0266
      3 C          -0.1766   -0.3757   -0.0002 C.2     1  LIG1        0.0474
      4 C          -1.1831    0.5643    0.0006 C.2     1  LIG1        0.0422
      5 S          -2.6937   -0.1528    0.0006 S.3     1  LIG1       -0.0938
      6 H          -2.8374   -2.7640   -0.0008 H       1  LIG1        0.0705
      7 S           0.0503   -2.7682   -0.0004 S.3     1  LIG1       -0.1410
      8 H           1.3104   -2.4102   -0.0005 H       1  LIG1        0.1072
      9 S           1.0968   -0.1143   -0.0009 S.2     1  LIG1       -0.0497
     10 H           1.2768    1.1833   -0.0011 H       1  LIG1        0.0929
     11 C          -1.0166    1.8536    0.0014 C.ar    1  LIG1        0.0403
     12 C           0.1958    2.5069    0.0015 C.ar    1  LIG1        0.0217
     13 C           0.0263    3.9290    0.0017 C.ar    1  LIG1        0.0246
     14 C          -1.3057    4.2790    0.0026 C.ar    1  LIG1       -0.0095
     15 S          -2.2953    2.9311    0.0023 S.2     1  LIG1       -0.0939
     16 H          -1.7708    5.4930    0.0035 H       1  LIG1        0.0705
     17 S           1.3609    1.9305    0.0013 S.3     1  LIG1       -0.2055
     18 H           2.3004    2.8435    0.0012 H       1  LIG1        0.0929
     19 S           1.0233    4.7632    0.0012 S.3     1  LIG1       -0.1411
     20 H           0.5662    5.9909    0.0010 H       1  LIG1        0.1072
@<TRIPOS>BOND
     1    10    17    1
     2     9     3    2
     3     6     1    1
     4     8     7    1
     5     7     2    1
     6     2     3    1
     7     2     1    2
     8     3     4    1
     9     1     5    1
    10     4     5    2
    11     4    11    1
    12    20    19    1
    13    18    17    1
    14    19    13    1
    15    17    12    1
    16    11    12   ar
    17    11    15   ar
    18    12    13   ar
    19    13    14   ar
    20    15    14   ar
    21    14    16    1
