@<TRIPOS>MOLECULE
mol_data/noopt/geoms/mol2/5gh5gh-5gh-5gh-.out
 42 45 0 0 0
SMALL
GASTEIGER

@<TRIPOS>ATOM
      1 C          -2.0792   -1.7080   -0.0002 C.ar    1  LIG1       -0.0087
      2 C          -0.7020   -1.7080   -0.0002 C.ar    1  LIG1        0.0331
      3 C          -0.1766   -0.3757   -0.0002 C.ar    1  LIG1        0.0534
      4 C          -1.1831    0.5643    0.0006 C.ar    1  LIG1        0.0487
      5 S          -2.6937   -0.1528    0.0006 S.2     1  LIG1       -0.0931
      6 H          -2.8374   -2.7640   -0.0008 H       1  LIG1        0.0705
      7 S           0.0503   -2.7682   -0.0004 S.3     1  LIG1       -0.1403
      8 H           1.3104   -2.4102   -0.0005 H       1  LIG1        0.1072
      9 N           1.0969   -0.1143   -0.0009 N.pl3   1  LIG1       -0.3562
     10 H           1.5873   -0.8472   -0.4725 H       1  LIG1        0.1424
     11 H           1.2590    0.7524   -0.4725 H       1  LIG1        0.1424
     12 C          -1.0166    1.8536    0.0014 C.ar    1  LIG1        0.0433
     13 C           0.1958    2.5069    0.0015 C.ar    1  LIG1        0.0414
     14 C           0.0263    3.9290    0.0017 C.ar    1  LIG1        0.0540
     15 C          -1.3057    4.2790    0.0026 C.ar    1  LIG1        0.0493
     16 S          -2.2953    2.9311    0.0023 S.2     1  LIG1       -0.0841
     17 S           1.3609    1.9305    0.0013 S.3     1  LIG1       -0.1397
     18 H           2.3004    2.8435    0.0012 H       1  LIG1        0.1072
     19 N           1.0233    4.7632    0.0012 N.pl3   1  LIG1       -0.3562
     20 H           1.8027    4.3508   -0.4704 H       1  LIG1        0.1424
     21 H           0.7549    5.6032   -0.4704 H       1  LIG1        0.1424
     22 C          -1.7708    5.4930    0.0035 C.ar    1  LIG1        0.0433
     23 C          -1.0136    6.6432    0.0227 C.ar    1  LIG1        0.0414
     24 C          -1.8374    7.8147    0.0172 C.ar    1  LIG1        0.0540
     25 C          -3.1758    7.4910   -0.0051 C.ar    1  LIG1        0.0493
     26 S          -3.4074    5.8351   -0.0192 S.2     1  LIG1       -0.0841
     27 S           0.2854    6.6885    0.0432 S.3     1  LIG1       -0.1397
     28 H           0.6794    7.9378    0.0501 H       1  LIG1        0.1072
     29 N          -1.3555    9.0220    0.0317 N.pl3   1  LIG1       -0.3562
     30 H          -0.4717    9.0338   -0.4360 H       1  LIG1        0.1424
     31 H          -1.9883    9.6391   -0.4360 H       1  LIG1        0.1424
     32 C          -4.1610    8.3391   -0.0144 C.ar    1  LIG1        0.0427
     33 C          -4.0399    9.7110   -0.0205 C.ar    1  LIG1        0.0408
     34 C          -5.3208   10.3515   -0.0311 C.ar    1  LIG1        0.0456
     35 C          -6.3457    9.4315   -0.0316 C.ar    1  LIG1       -0.0020
     36 S          -5.7642    7.8638   -0.0205 S.2     1  LIG1       -0.0931
     37 H          -7.6153    9.7107   -0.0396 H       1  LIG1        0.0712
     38 S          -2.9177   10.3671   -0.0175 S.3     1  LIG1       -0.1397
     39 H          -3.1635   11.6539   -0.0165 H       1  LIG1        0.1072
     40 N          -5.4692   11.6430   -0.0391 N.pl3   1  LIG1       -0.3567
     41 H          -4.6957   12.0644   -0.5125 H       1  LIG1        0.1424
     42 H          -6.3180   11.8781   -0.5125 H       1  LIG1        0.1424
@<TRIPOS>BOND
     1    42    40    1
     2    41    40    1
     3    11     9    1
     4    10     9    1
     5    21    19    1
     6    20    19    1
     7    31    29    1
     8    30    29    1
     9    37    35    1
    10    40    34    1
    11    35    34   ar
    12    35    36   ar
    13    34    33   ar
    14    33    38    1
    15    33    32   ar
    16    36    32   ar
    17    26    25   ar
    18    26    22   ar
    19    38    39    1
    20    32    25    1
    21    25    24   ar
    22     9     3    1
    23     6     1    1
    24     8     7    1
    25     7     2    1
    26     1     2   ar
    27     1     5   ar
    28     2     3   ar
    29     3     4   ar
    30     4     5   ar
    31     4    12    1
    32    18    17    1
    33    19    14    1
    34    17    13    1
    35    12    13   ar
    36    12    16   ar
    37    13    14   ar
    38    14    15   ar
    39    16    15   ar
    40    15    22    1
    41    22    23   ar
    42    24    23   ar
    43    24    29    1
    44    23    27    1
    45    27    28    1
