@<TRIPOS>MOLECULE
mol_data/noopt/geoms/mol2/5gh5gh-5gh5gh.out
 42 45 0 0 0
SMALL
GASTEIGER

@<TRIPOS>ATOM
      1 C          -2.0792   -1.7080   -0.0002 C.ar    1  LIG1       -0.0087
      2 C          -0.7020   -1.7080   -0.0002 C.ar    1  LIG1        0.0331
      3 C          -0.1766   -0.3757   -0.0002 C.ar    1  LIG1        0.0534
      4 C          -1.1831    0.5643    0.0006 C.ar    1  LIG1        0.0487
      5 S          -2.6937   -0.1528    0.0006 S.2     1  LIG1       -0.0931
      6 H          -2.8374   -2.7640   -0.0008 H       1  LIG1        0.0705
      7 S           0.0503   -2.7682   -0.0004 S.3     1  LIG1       -0.1403
      8 H           1.3104   -2.4102   -0.0005 H       1  LIG1        0.1072
      9 N           1.0969   -0.1143   -0.0009 N.pl3   1  LIG1       -0.3562
     10 H           1.5873   -0.8472   -0.4725 H       1  LIG1        0.1424
     11 H           1.2590    0.7524   -0.4725 H       1  LIG1        0.1424
     12 C          -1.0166    1.8536    0.0014 C.ar    1  LIG1        0.0433
     13 C           0.1958    2.5069    0.0015 C.ar    1  LIG1        0.0414
     14 C           0.0263    3.9290    0.0017 C.ar    1  LIG1        0.0540
     15 C          -1.3057    4.2790    0.0026 C.ar    1  LIG1        0.0493
     16 S          -2.2953    2.9311    0.0023 S.2     1  LIG1       -0.0841
     17 S           1.3609    1.9305    0.0013 S.3     1  LIG1       -0.1397
     18 H           2.3004    2.8435    0.0012 H       1  LIG1        0.1072
     19 N           1.0233    4.7632    0.0012 N.pl3   1  LIG1       -0.3562
     20 H           1.8027    4.3508   -0.4704 H       1  LIG1        0.1424
     21 H           0.7549    5.6032   -0.4704 H       1  LIG1        0.1424
     22 C          -1.7708    5.4930    0.0035 C.ar    1  LIG1        0.0433
     23 C          -1.0134    6.6433    0.0038 C.ar    1  LIG1        0.0414
     24 C          -1.8373    7.8147    0.0042 C.ar    1  LIG1        0.0540
     25 C          -3.1759    7.4910    0.0050 C.ar    1  LIG1        0.0493
     26 S          -3.4076    5.8350    0.0046 S.2     1  LIG1       -0.0841
     27 S           0.2857    6.6886    0.0035 S.3     1  LIG1       -0.1397
     28 H           0.6797    7.9380    0.0033 H       1  LIG1        0.1072
     29 N          -1.3553    9.0221    0.0038 N.pl3   1  LIG1       -0.3562
     30 H          -0.4735    9.0288   -0.4678 H       1  LIG1        0.1424
     31 H          -1.9901    9.6342   -0.4678 H       1  LIG1        0.1424
     32 C          -4.1612    8.3391    0.0062 C.ar    1  LIG1        0.0427
     33 C          -4.0402    9.7108    0.0254 C.ar    1  LIG1        0.0408
     34 C          -5.3212   10.3513    0.0201 C.ar    1  LIG1        0.0456
     35 C          -6.3459    9.4314   -0.0022 C.ar    1  LIG1       -0.0020
     36 S          -5.7642    7.8638   -0.0165 S.2     1  LIG1       -0.0931
     37 H          -7.6155    9.7107   -0.0114 H       1  LIG1        0.0712
     38 S          -2.9182   10.3669    0.0458 S.3     1  LIG1       -0.1397
     39 H          -3.1640   11.6536    0.0527 H       1  LIG1        0.1072
     40 N          -5.4697   11.6427    0.0347 N.pl3   1  LIG1       -0.3567
     41 H          -4.6972   12.0724   -0.4330 H       1  LIG1        0.1424
     42 H          -6.3195   11.8858   -0.4330 H       1  LIG1        0.1424
@<TRIPOS>BOND
     1    11     9    1
     2    10     9    1
     3    21    19    1
     4    20    19    1
     5    31    29    1
     6    30    29    1
     7    42    40    1
     8    41    40    1
     9    36    35   ar
    10    36    32   ar
    11    37    35    1
    12    35    34   ar
    13     9     3    1
    14     6     1    1
    15     8     7    1
    16     7     2    1
    17     1     2   ar
    18     1     5   ar
    19     2     3   ar
    20     3     4   ar
    21     4     5   ar
    22     4    12    1
    23    18    17    1
    24    19    14    1
    25    17    13    1
    26    12    13   ar
    27    12    16   ar
    28    13    14   ar
    29    14    15   ar
    30    16    15   ar
    31    15    22    1
    32    28    27    1
    33    27    23    1
    34    22    23   ar
    35    22    26   ar
    36    29    24    1
    37    23    24   ar
    38    24    25   ar
    39    26    25   ar
    40    25    32    1
    41    32    33   ar
    42    34    33   ar
    43    34    40    1
    44    33    38    1
    45    38    39    1
