@<TRIPOS>MOLECULE
mol_data/noopt/geoms/mol2/5gh5gh5gh5gh.out
 42 45 0 0 0
SMALL
GASTEIGER

@<TRIPOS>ATOM
      1 C          -2.0792   -1.7080   -0.0002 C.ar    1  LIG1       -0.0087
      2 C          -0.7020   -1.7080   -0.0002 C.ar    1  LIG1        0.0331
      3 C          -0.1766   -0.3757   -0.0002 C.ar    1  LIG1        0.0534
      4 C          -1.1831    0.5643    0.0006 C.ar    1  LIG1        0.0487
      5 S          -2.6937   -0.1528    0.0006 S.2     1  LIG1       -0.0931
      6 H          -2.8374   -2.7640   -0.0008 H       1  LIG1        0.0705
      7 S           0.0503   -2.7682   -0.0004 S.3     1  LIG1       -0.1403
      8 H           1.3104   -2.4102   -0.0005 H       1  LIG1        0.1072
      9 N           1.0969   -0.1143   -0.0009 N.pl3   1  LIG1       -0.3562
     10 H           1.5873   -0.8472   -0.4725 H       1  LIG1        0.1424
     11 H           1.2590    0.7524   -0.4725 H       1  LIG1        0.1424
     12 C          -1.0166    1.8536    0.0014 C.ar    1  LIG1        0.0433
     13 C           0.1956    2.5069    0.0205 C.ar    1  LIG1        0.0414
     14 C           0.0262    3.9290    0.0147 C.ar    1  LIG1        0.0540
     15 C          -1.3056    4.2790   -0.0075 C.ar    1  LIG1        0.0493
     16 S          -2.2951    2.9311   -0.0215 S.2     1  LIG1       -0.0841
     17 S           1.3606    1.9305    0.0410 S.3     1  LIG1       -0.1397
     18 H           2.3001    2.8435    0.0479 H       1  LIG1        0.1072
     19 N           1.0231    4.7633    0.0291 N.pl3   1  LIG1       -0.3562
     20 H           1.8067    4.3543   -0.4386 H       1  LIG1        0.1424
     21 H           0.7588    5.6066   -0.4386 H       1  LIG1        0.1424
     22 C          -1.7706    5.4930   -0.0170 C.ar    1  LIG1        0.0433
     23 C          -1.0132    6.6432   -0.0232 C.ar    1  LIG1        0.0414
     24 C          -1.8369    7.8147   -0.0340 C.ar    1  LIG1        0.0540
     25 C          -3.1756    7.4910   -0.0345 C.ar    1  LIG1        0.0493
     26 S          -3.4074    5.8350   -0.0232 S.2     1  LIG1       -0.0841
     27 S           0.2860    6.6885   -0.0202 S.3     1  LIG1       -0.1397
     28 H           0.6800    7.9378   -0.0191 H       1  LIG1        0.1072
     29 N          -1.3549    9.0220   -0.0421 N.pl3   1  LIG1       -0.3562
     30 H          -0.4741    9.0260   -0.5155 H       1  LIG1        0.1424
     31 H          -1.9906    9.6316   -0.5156 H       1  LIG1        0.1424
     32 C          -4.1608    8.3391   -0.0426 C.ar    1  LIG1        0.0427
     33 C          -4.0399    9.7109   -0.0290 C.ar    1  LIG1        0.0408
     34 C          -5.3207   10.3514   -0.0442 C.ar    1  LIG1        0.0456
     35 C          -6.3454    9.4315   -0.0677 C.ar    1  LIG1       -0.0020
     36 S          -5.7637    7.8638   -0.0716 S.2     1  LIG1       -0.0931
     37 H          -7.6149    9.7107   -0.0849 H       1  LIG1        0.0712
     38 S          -2.9179   10.3670   -0.0056 S.3     1  LIG1       -0.1397
     39 H          -3.1639   11.6537    0.0023 H       1  LIG1        0.1072
     40 N          -5.4693   11.6429   -0.0363 N.pl3   1  LIG1       -0.3567
     41 H          -4.6965   12.0702   -0.5057 H       1  LIG1        0.1424
     42 H          -6.3188   11.8836   -0.5057 H       1  LIG1        0.1424
@<TRIPOS>BOND
     1    31    29    1
     2    30    29    1
     3    42    40    1
     4    41    40    1
     5    11     9    1
     6    10     9    1
     7    21    19    1
     8    20    19    1
     9    37    35    1
    10    36    35   ar
    11    36    32   ar
    12    35    34   ar
    13    34    40    1
    14    34    33   ar
    15    32    25    1
    16    32    33   ar
    17    29    24    1
    18    25    24   ar
    19    25    26   ar
    20    24    23   ar
    21    33    38    1
    22    23    27    1
    23    23    22   ar
    24    26    22   ar
    25    16    15   ar
    26    16    12   ar
    27    27    28    1
    28    22    15    1
    29    15    14   ar
    30    38    39    1
    31     9     3    1
    32     6     1    1
    33     8     7    1
    34     7     2    1
    35     2     1   ar
    36     2     3   ar
    37     1     5   ar
    38     3     4   ar
    39     5     4   ar
    40     4    12    1
    41    12    13   ar
    42    14    13   ar
    43    14    19    1
    44    13    17    1
    45    17    18    1
