@<TRIPOS>MOLECULE
mol_data/noopt/geoms/mol2/5gi5gi5gi-5gi-.out
 46 49 0 0 0
SMALL
GASTEIGER

@<TRIPOS>ATOM
      1 C          -2.0792   -1.7080   -0.0002 C.ar    1  LIG1       -0.0103
      2 C          -0.7020   -1.7080   -0.0002 C.ar    1  LIG1        0.0153
      3 C          -0.1766   -0.3757   -0.0002 C.ar    1  LIG1       -0.0220
      4 C          -1.1831    0.5643    0.0006 C.ar    1  LIG1        0.0309
      5 S          -2.6937   -0.1528    0.0006 S.2     1  LIG1       -0.0947
      6 H          -2.8374   -2.7640   -0.0008 H       1  LIG1        0.0704
      7 S           0.0503   -2.7682   -0.0004 S.3     1  LIG1       -0.1418
      8 H           1.3104   -2.4102   -0.0005 H       1  LIG1        0.1071
      9 C           1.0972   -0.1142   -0.0009 C.3     1  LIG1       -0.0376
     10 H           1.2712    0.8133    0.5033 H       1  LIG1        0.0278
     11 H           1.4460   -0.0426   -1.0099 H       1  LIG1        0.0278
     12 H           1.6224   -0.8983    0.5033 H       1  LIG1        0.0278
     13 C          -1.0166    1.8536    0.0014 C.ar    1  LIG1        0.0402
     14 C           0.1956    2.5069    0.0205 C.ar    1  LIG1        0.0236
     15 C           0.0262    3.9290    0.0147 C.ar    1  LIG1       -0.0214
     16 C          -1.3056    4.2790   -0.0075 C.ar    1  LIG1        0.0315
     17 S          -2.2951    2.9311   -0.0215 S.2     1  LIG1       -0.0858
     18 S           1.3606    1.9305    0.0410 S.3     1  LIG1       -0.1412
     19 H           2.3001    2.8435    0.0479 H       1  LIG1        0.1071
     20 C           1.0233    4.7634    0.0291 C.3     1  LIG1       -0.0375
     21 H           0.7319    5.6588    0.5375 H       1  LIG1        0.0278
     22 H           1.3054    4.9995   -0.9757 H       1  LIG1        0.0278
     23 H           1.8532    4.3187    0.5374 H       1  LIG1        0.0278
     24 C          -1.7706    5.4930   -0.0170 C.ar    1  LIG1        0.0402
     25 C          -1.0134    6.6433   -0.0043 C.ar    1  LIG1        0.0236
     26 C          -1.8371    7.8147   -0.0210 C.ar    1  LIG1       -0.0214
     27 C          -3.1754    7.4910   -0.0446 C.ar    1  LIG1        0.0315
     28 S          -3.4072    5.8350   -0.0470 S.2     1  LIG1       -0.0858
     29 S           0.2856    6.6886    0.0196 S.3     1  LIG1       -0.1412
     30 H           0.6794    7.9380    0.0276 H       1  LIG1        0.1071
     31 C          -1.3550    9.0224   -0.0141 C.3     1  LIG1       -0.0375
     32 H          -2.0352    9.6750    0.4922 H       1  LIG1        0.0278
     33 H          -1.2209    9.3586   -1.0211 H       1  LIG1        0.0278
     34 H          -0.4124    9.0273    0.4921 H       1  LIG1        0.0278
     35 C          -4.1606    8.3390   -0.0631 C.ar    1  LIG1        0.0396
     36 C          -4.0394    9.7108   -0.0749 C.ar    1  LIG1        0.0230
     37 C          -5.3202   10.3513   -0.0953 C.ar    1  LIG1       -0.0297
     38 C          -6.3451    9.4313   -0.0971 C.ar    1  LIG1       -0.0197
     39 S          -5.7637    7.8636   -0.0756 S.2     1  LIG1       -0.0947
     40 H          -7.6146    9.7105   -0.1131 H       1  LIG1        0.0696
     41 S          -2.9172   10.3670   -0.0689 S.3     1  LIG1       -0.1412
     42 H          -3.1630   11.6537   -0.0669 H       1  LIG1        0.1071
     43 C          -5.4685   11.6430   -0.1101 C.3     1  LIG1       -0.0382
     44 H          -6.3778   11.9034    0.3903 H       1  LIG1        0.0278
     45 H          -5.5080   11.9860   -1.1229 H       1  LIG1        0.0278
     46 H          -4.6419   12.1027    0.3902 H       1  LIG1        0.0278
@<TRIPOS>BOND
     1    45    43    1
     2    33    31    1
     3    11     9    1
     4    22    20    1
     5    40    38    1
     6    43    37    1
     7    43    46    1
     8    43    44    1
     9    38    37   ar
    10    38    39   ar
    11    37    36   ar
    12    39    35   ar
    13    36    41    1
    14    36    35   ar
    15    41    42    1
    16    35    27    1
    17    28    27   ar
    18    28    24   ar
    19    27    26   ar
    20    17    16   ar
    21    17    13   ar
    22    26    31    1
    23    26    25   ar
    24    24    16    1
    25    24    25   ar
    26    31    34    1
    27    31    32    1
    28    16    15   ar
    29    25    29    1
    30     9     3    1
    31     9    12    1
    32     9    10    1
    33     6     1    1
    34     8     7    1
    35     7     2    1
    36     1     2   ar
    37     1     5   ar
    38     2     3   ar
    39     3     4   ar
    40     4     5   ar
    41     4    13    1
    42    13    14   ar
    43    15    14   ar
    44    15    20    1
    45    29    30    1
    46    14    18    1
    47    20    23    1
    48    20    21    1
    49    18    19    1
