@<TRIPOS>MOLECULE
mol_data/noopt/geoms/mol2/5gi5gi5gi5gi.out
 46 49 0 0 0
SMALL
GASTEIGER

@<TRIPOS>ATOM
      1 C          -2.0792   -1.7080   -0.0002 C.ar    1  LIG1       -0.0103
      2 C          -0.7020   -1.7080   -0.0002 C.ar    1  LIG1        0.0153
      3 C          -0.1766   -0.3757   -0.0002 C.ar    1  LIG1       -0.0220
      4 C          -1.1831    0.5643    0.0006 C.ar    1  LIG1        0.0309
      5 S          -2.6937   -0.1528    0.0006 S.2     1  LIG1       -0.0947
      6 H          -2.8374   -2.7640   -0.0008 H       1  LIG1        0.0704
      7 S           0.0503   -2.7682   -0.0004 S.3     1  LIG1       -0.1418
      8 H           1.3104   -2.4102   -0.0005 H       1  LIG1        0.1071
      9 C           1.0972   -0.1142   -0.0009 C.3     1  LIG1       -0.0376
     10 H           1.2712    0.8133    0.5033 H       1  LIG1        0.0278
     11 H           1.4460   -0.0426   -1.0099 H       1  LIG1        0.0278
     12 H           1.6224   -0.8983    0.5033 H       1  LIG1        0.0278
     13 C          -1.0166    1.8536    0.0014 C.ar    1  LIG1        0.0402
     14 C           0.1956    2.5069    0.0205 C.ar    1  LIG1        0.0236
     15 C           0.0262    3.9290    0.0147 C.ar    1  LIG1       -0.0214
     16 C          -1.3056    4.2790   -0.0075 C.ar    1  LIG1        0.0315
     17 S          -2.2951    2.9311   -0.0215 S.2     1  LIG1       -0.0858
     18 S           1.3606    1.9305    0.0410 S.3     1  LIG1       -0.1412
     19 H           2.3001    2.8435    0.0479 H       1  LIG1        0.1071
     20 C           1.0233    4.7634    0.0291 C.3     1  LIG1       -0.0375
     21 H           0.7319    5.6588    0.5375 H       1  LIG1        0.0278
     22 H           1.3054    4.9995   -0.9757 H       1  LIG1        0.0278
     23 H           1.8532    4.3187    0.5374 H       1  LIG1        0.0278
     24 C          -1.7706    5.4930   -0.0170 C.ar    1  LIG1        0.0402
     25 C          -1.0132    6.6432   -0.0232 C.ar    1  LIG1        0.0236
     26 C          -1.8369    7.8147   -0.0340 C.ar    1  LIG1       -0.0214
     27 C          -3.1756    7.4910   -0.0345 C.ar    1  LIG1        0.0315
     28 S          -3.4074    5.8350   -0.0232 S.2     1  LIG1       -0.0858
     29 S           0.2860    6.6885   -0.0202 S.3     1  LIG1       -0.1412
     30 H           0.6800    7.9378   -0.0191 H       1  LIG1        0.1071
     31 C          -1.3548    9.0223   -0.0421 C.3     1  LIG1       -0.0375
     32 H          -2.0327    9.6804    0.4601 H       1  LIG1        0.0278
     33 H          -1.2249    9.3477   -1.0531 H       1  LIG1        0.0278
     34 H          -0.4100    9.0324    0.4601 H       1  LIG1        0.0278
     35 C          -4.1608    8.3391   -0.0426 C.ar    1  LIG1        0.0396
     36 C          -4.0399    9.7109   -0.0290 C.ar    1  LIG1        0.0230
     37 C          -5.3207   10.3514   -0.0442 C.ar    1  LIG1       -0.0297
     38 C          -6.3454    9.4315   -0.0677 C.ar    1  LIG1       -0.0197
     39 S          -5.7637    7.8638   -0.0716 S.2     1  LIG1       -0.0947
     40 H          -7.6149    9.7107   -0.0849 H       1  LIG1        0.0696
     41 S          -2.9179   10.3670   -0.0056 S.3     1  LIG1       -0.1412
     42 H          -3.1639   11.6537    0.0023 H       1  LIG1        0.1071
     43 C          -5.4693   11.6432   -0.0363 C.3     1  LIG1       -0.0382
     44 H          -6.3776   11.8947    0.4703 H       1  LIG1        0.0278
     45 H          -5.5108   12.0036   -1.0430 H       1  LIG1        0.0278
     46 H          -4.6417   12.0943    0.4702 H       1  LIG1        0.0278
@<TRIPOS>BOND
     1    33    31    1
     2    45    43    1
     3    11     9    1
     4    22    20    1
     5    40    38    1
     6    39    38   ar
     7    39    35   ar
     8    38    37   ar
     9    37    43    1
    10    37    36   ar
    11    35    27    1
    12    35    36   ar
    13    31    26    1
    14    31    34    1
    15    31    32    1
    16    43    46    1
    17    43    44    1
    18    27    26   ar
    19    27    28   ar
    20    26    25   ar
    21    36    41    1
    22    25    29    1
    23    25    24   ar
    24    28    24   ar
    25    17    16   ar
    26    17    13   ar
    27    29    30    1
    28    24    16    1
    29    16    15   ar
    30    41    42    1
    31     9     3    1
    32     9    12    1
    33     9    10    1
    34     6     1    1
    35     8     7    1
    36     7     2    1
    37     1     2   ar
    38     1     5   ar
    39     2     3   ar
    40     3     4   ar
    41     5     4   ar
    42     4    13    1
    43    13    14   ar
    44    15    14   ar
    45    15    20    1
    46    14    18    1
    47    20    23    1
    48    20    21    1
    49    18    19    1
