@<TRIPOS>MOLECULE
mol_data/noopt/geoms/mol2/5gl.out
 14 13 0 0 0
SMALL
GASTEIGER

@<TRIPOS>ATOM
      1 C          -2.0792   -1.7080   -0.0002 C.2     1  LIG1       -0.0063
      2 C          -0.7020   -1.7080   -0.0002 C.2     1  LIG1        0.0726
      3 C          -0.1766   -0.3757   -0.0002 C.2     1  LIG1        0.2000
      4 C          -1.1831    0.5643    0.0006 C.2     1  LIG1        0.0236
      5 S          -2.6937   -0.1528    0.0006 S.3     1  LIG1       -0.1000
      6 H          -2.8374   -2.7640   -0.0008 H       1  LIG1        0.0706
      7 H          -1.0166    1.8536    0.0014 H       1  LIG1        0.0732
      8 S           0.0503   -2.7682   -0.0004 S.2     1  LIG1       -0.0475
      9 H           1.3104   -2.4102   -0.0005 H       1  LIG1        0.0194
     10 O           1.0969   -0.1143   -0.0009 O.2     1  LIG1       -0.2861
     11 C           1.8355   -1.3388   -0.0012 C.3     2  LIG2       -0.0776
     12 H           2.8835   -1.1232   -0.0020 H       1  LIG1        0.0194
     13 H           1.5884   -1.9046    0.8727 H       1  LIG1        0.0194
     14 H           1.5872   -1.9049   -0.8746 H       1  LIG1        0.0194
@<TRIPOS>BOND
     1    14    11    1
     2    12    11    1
     3    11     9    1
     4    11    13    1
     5    10     3    1
     6     6     1    1
     7     8     2    2
     8     1     2    1
     9     1     5    2
    10     2     3    1
    11     3     4    2
    12     4     5    1
    13     4     7    1
