@<TRIPOS>MOLECULE
mol_data/noopt/geoms/mol2/5gl5gl5gl5gl.out
 50 49 0 0 0
SMALL
GASTEIGER

@<TRIPOS>ATOM
      1 C          -2.0792   -1.7080   -0.0002 C.3     1  LIG1        0.0573
      2 C          -0.7020   -1.7080   -0.0002 C.2     1  LIG1        0.0320
      3 C          -0.1766   -0.3757   -0.0002 C.3     1  LIG1        0.2056
      4 C          -1.1831    0.5643    0.0006 C.2     1  LIG1        0.0437
      5 S          -2.6937   -0.1528    0.0006 S.3     1  LIG1       -0.1151
      6 H          -2.8374   -2.7640   -0.0008 H       1  LIG1        0.0482
      7 S           0.0503   -2.7682   -0.0004 S.2     1  LIG1       -0.0566
      8 H           1.3104   -2.4102   -0.0005 H       1  LIG1        0.0194
      9 O           1.0969   -0.1143   -0.0009 O.3     1  LIG1       -0.2126
     10 C           1.8355   -1.3388   -0.0012 C.3     2  LIG2       -0.0776
     11 H           2.8835   -1.1232   -0.0020 H       1  LIG1        0.0194
     12 H           1.5884   -1.9046    0.8727 H       1  LIG1        0.0194
     13 H           1.5872   -1.9049   -0.8746 H       1  LIG1        0.0194
     14 C          -1.0166    1.8536    0.0014 C.2     1  LIG1        0.0388
     15 C           0.1956    2.5069    0.0205 C.2     1  LIG1        0.0544
     16 C           0.0262    3.9290    0.0147 C.3     1  LIG1        0.2098
     17 C          -1.3056    4.2790   -0.0075 C.2     1  LIG1        0.0482
     18 S          -2.2951    2.9311   -0.0215 S.3     1  LIG1       -0.0874
     19 S           1.3606    1.9305    0.0410 S.2     1  LIG1       -0.0519
     20 H           2.3001    2.8435    0.0479 H       2  LIG2        0.0194
     21 O           1.0231    4.7633    0.0291 O.3     1  LIG1       -0.2122
     22 C           2.2542    4.0357    0.0343 C.3     3  LIG3       -0.0776
     23 H           3.0745    4.7227    0.0460 H       2  LIG2        0.0194
     24 H           2.2974    3.4139    0.9041 H       2  LIG2        0.0194
     25 H           2.3120    3.4261   -0.8431 H       2  LIG2        0.0194
     26 C          -1.7706    5.4930   -0.0170 C.2     1  LIG1        0.0391
     27 C          -1.0132    6.6432   -0.0232 C.2     1  LIG1        0.0544
     28 C          -1.8369    7.8147   -0.0340 C.3     1  LIG1        0.2098
     29 C          -3.1756    7.4910   -0.0345 C.2     1  LIG1        0.0485
     30 S          -3.4074    5.8350   -0.0232 S.3     1  LIG1       -0.0874
     31 S           0.2860    6.6885   -0.0202 S.2     1  LIG1       -0.0519
     32 H           0.6800    7.9378   -0.0191 H       3  LIG3        0.0194
     33 O          -1.3549    9.0220   -0.0421 O.3     1  LIG1       -0.2122
     34 C           0.0740    8.9654   -0.0451 C.3     4  LIG4       -0.0776
     35 H           0.4703    9.9593   -0.0519 H       3  LIG3        0.0194
     36 H           0.4125    8.4525    0.8309 H       3  LIG3        0.0194
     37 H           0.4084    8.4421   -0.9164 H       3  LIG3        0.0194
     38 C          -4.1608    8.3391   -0.0426 C.2     1  LIG1        0.0432
     39 C          -4.0399    9.7109   -0.0290 C.2     1  LIG1        0.0806
     40 C          -5.3207   10.3514   -0.0442 C.2     1  LIG1        0.2007
     41 C          -6.3454    9.4315   -0.0677 C.2     1  LIG1        0.0242
     42 S          -5.7637    7.8638   -0.0716 S.3     1  LIG1       -0.0913
     43 H          -7.6149    9.7107   -0.0849 H       1  LIG1        0.0732
     44 S          -2.9179   10.3670   -0.0056 S.2     1  LIG1       -0.0469
     45 H          -3.1639   11.6537    0.0023 H       4  LIG4        0.0194
     46 O          -5.4693   11.6429   -0.0363 O.2     1  LIG1       -0.2861
     47 C          -4.1846   12.2711   -0.0335 C.3     5  LIG5       -0.0776
     48 H          -4.3073   13.3340   -0.0272 H       4  LIG4        0.0194
     49 H          -3.6420   11.9696    0.8381 H       4  LIG4        0.0194
     50 H          -3.6432   11.9798   -0.9092 H       4  LIG4        0.0194
@<TRIPOS>BOND
     1    37    34    1
     2    50    47    1
     3    13    10    1
     4    25    22    1
     5    43    41    1
     6    42    41    1
     7    42    38    2
     8    41    40    2
     9    35    34    1
    10    34    32    1
    11    34    36    1
    12    40    46    1
    13    40    39    1
    14    38    29    1
    15    38    39    1
    16    33    28    1
    17    29    28    1
    18    29    30    2
    19    28    27    1
    20    47    48    1
    21    47    45    1
    22    47    49    1
    23    39    44    2
    24    27    31    2
    25    27    26    1
    26    30    26    1
    27    18    17    1
    28    18    14    2
    29    26    17    2
    30    17    16    1
    31    11    10    1
    32    10     8    1
    33    10    12    1
    34     9     3    1
    35     6     1    1
    36     7     2    2
    37     2     3    1
    38     2     1    1
    39     3     4    1
    40     1     5    1
    41     5     4    2
    42     4    14    1
    43    14    15    1
    44    16    15    1
    45    16    21    1
    46    15    19    2
    47    22    23    1
    48    22    20    1
    49    22    24    1
