@<TRIPOS>MOLECULE
mol_data/noopt/geoms/mol2/5gl5gl-5gl-5gl-.out
 50 49 0 0 0
SMALL
GASTEIGER

@<TRIPOS>ATOM
      1 C          -2.0792   -1.7080   -0.0002 C.3     1  LIG1        0.0570
      2 C          -0.7020   -1.7080   -0.0002 C.2     1  LIG1        0.0317
      3 C          -0.1766   -0.3757   -0.0002 C.3     1  LIG1        0.2023
      4 C          -1.1831    0.5643    0.0006 C.2     1  LIG1        0.0296
      5 S          -2.6937   -0.1528    0.0006 S.3     1  LIG1       -0.1188
      6 H          -2.8374   -2.7640   -0.0008 H       1  LIG1        0.0482
      7 S           0.0503   -2.7682   -0.0004 S.2     1  LIG1       -0.0566
      8 H           1.3104   -2.4102   -0.0005 H       1  LIG1        0.0194
      9 O           1.0969   -0.1143   -0.0009 O.3     1  LIG1       -0.2129
     10 C           1.8355   -1.3388   -0.0012 C.3     2  LIG2       -0.0776
     11 H           2.8835   -1.1232   -0.0020 H       1  LIG1        0.0194
     12 H           1.5884   -1.9046    0.8727 H       1  LIG1        0.0194
     13 H           1.5872   -1.9049   -0.8746 H       1  LIG1        0.0194
     14 C          -1.0166    1.8536    0.0014 C.3     1  LIG1        0.1056
     15 C           0.1958    2.5069    0.0015 C.2     1  LIG1        0.0403
     16 C           0.0263    3.9290    0.0017 C.3     1  LIG1        0.2062
     17 C          -1.3057    4.2790    0.0026 C.2     1  LIG1        0.0446
     18 S          -2.2953    2.9311    0.0023 S.3     1  LIG1       -0.1060
     19 S           1.3609    1.9305    0.0013 S.2     1  LIG1       -0.0559
     20 H           2.3004    2.8435    0.0012 H       2  LIG2        0.0194
     21 O           1.0233    4.7633    0.0012 O.3     1  LIG1       -0.2126
     22 C           2.2544    4.0357    0.0009 C.3     3  LIG3       -0.0776
     23 H           3.0747    4.7226    0.0003 H       2  LIG2        0.0194
     24 H           2.3052    3.4203    0.8748 H       2  LIG2        0.0194
     25 H           2.3044    3.4196   -0.8725 H       2  LIG2        0.0194
     26 C          -1.7708    5.4930    0.0035 C.2     1  LIG1        0.0435
     27 C          -1.0136    6.6432    0.0227 C.2     1  LIG1        0.0813
     28 C          -1.8374    7.8147    0.0172 C.2     1  LIG1        0.2089
     29 C          -3.1758    7.4910   -0.0051 C.2     1  LIG1        0.0755
     30 S          -3.4074    5.8351   -0.0192 S.3     1  LIG1       -0.0823
     31 S           0.2854    6.6885    0.0432 S.2     1  LIG1       -0.0468
     32 H           0.6794    7.9378    0.0501 H       3  LIG3        0.0194
     33 O          -1.3555    9.0221    0.0317 O.2     1  LIG1       -0.2855
     34 C           0.0734    8.9656    0.0369 C.3     4  LIG4       -0.0776
     35 H           0.4696    9.9595    0.0487 H       3  LIG3        0.0194
     36 H           0.4064    8.4386    0.9067 H       3  LIG3        0.0194
     37 H           0.4135    8.4565   -0.8405 H       3  LIG3        0.0194
     38 C          -4.1610    8.3391   -0.0144 C.2     1  LIG1        0.0476
     39 C          -4.0399    9.7110   -0.0205 C.2     1  LIG1        0.0810
     40 C          -5.3208   10.3515   -0.0311 C.2     1  LIG1        0.2007
     41 C          -6.3457    9.4315   -0.0316 C.2     1  LIG1        0.0242
     42 S          -5.7642    7.8638   -0.0205 S.3     1  LIG1       -0.0910
     43 H          -7.6153    9.7107   -0.0396 H       1  LIG1        0.0732
     44 S          -2.9177   10.3671   -0.0175 S.2     1  LIG1       -0.0469
     45 H          -3.1635   11.6539   -0.0165 H       4  LIG4        0.0194
     46 O          -5.4692   11.6430   -0.0391 O.2     1  LIG1       -0.2861
     47 C          -4.1845   12.2710   -0.0421 C.3     5  LIG5       -0.0776
     48 H          -4.3070   13.3340   -0.0488 H       4  LIG4        0.0194
     49 H          -3.6431   11.9800    0.8339 H       4  LIG4        0.0194
     50 H          -3.6419   11.9691   -0.9134 H       4  LIG4        0.0194
@<TRIPOS>BOND
     1    50    47    1
     2    13    10    1
     3    25    22    1
     4    37    34    1
     5    48    47    1
     6    47    45    1
     7    47    49    1
     8    43    41    1
     9    46    40    1
    10    41    40    2
    11    41    42    1
    12    40    39    1
    13    39    44    2
    14    39    38    1
    15    42    38    2
    16    30    29    1
    17    30    26    2
    18    38    29    1
    19    29    28    2
    20    11    10    1
    21    10     8    1
    22    10    12    1
    23     9     3    1
    24     6     1    1
    25     7     2    2
    26     1     2    1
    27     1     5    1
    28     2     3    1
    29     3     4    1
    30    23    22    1
    31     4     5    2
    32     4    14    1
    33    22    20    1
    34    22    24    1
    35    21    16    1
    36    19    15    2
    37    14    15    1
    38    14    18    1
    39    15    16    1
    40    16    17    1
    41    18    17    2
    42    17    26    1
    43    26    27    1
    44    28    27    1
    45    28    33    1
    46    27    31    2
    47    34    35    1
    48    34    32    1
    49    34    36    1
