@<TRIPOS>MOLECULE
mol_data/noopt/geoms/mol2/5gl5gl-.out
 26 25 0 0 0
SMALL
GASTEIGER

@<TRIPOS>ATOM
      1 C          -2.0792   -1.7080   -0.0002 C.3     1  LIG1        0.0573
      2 C          -0.7020   -1.7080   -0.0002 C.2     1  LIG1        0.0320
      3 C          -0.1766   -0.3757   -0.0002 C.3     1  LIG1        0.2056
      4 C          -1.1831    0.5643    0.0006 C.2     1  LIG1        0.0440
      5 S          -2.6937   -0.1528    0.0006 S.3     1  LIG1       -0.1151
      6 H          -2.8374   -2.7640   -0.0008 H       1  LIG1        0.0482
      7 S           0.0503   -2.7682   -0.0004 S.2     1  LIG1       -0.0566
      8 H           1.3104   -2.4102   -0.0005 H       1  LIG1        0.0194
      9 O           1.0969   -0.1143   -0.0009 O.3     1  LIG1       -0.2126
     10 C           1.8355   -1.3388   -0.0012 C.3     2  LIG2       -0.0776
     11 H           2.8835   -1.1232   -0.0020 H       1  LIG1        0.0194
     12 H           1.5884   -1.9046    0.8727 H       1  LIG1        0.0194
     13 H           1.5872   -1.9049   -0.8746 H       1  LIG1        0.0194
     14 C          -1.0166    1.8536    0.0014 C.2     1  LIG1        0.0429
     15 C           0.1958    2.5069    0.0015 C.2     1  LIG1        0.0806
     16 C           0.0263    3.9290    0.0017 C.2     1  LIG1        0.2007
     17 C          -1.3057    4.2790    0.0026 C.2     1  LIG1        0.0242
     18 S          -2.2953    2.9311    0.0023 S.3     1  LIG1       -0.0913
     19 H          -1.7708    5.4930    0.0035 H       1  LIG1        0.0732
     20 S           1.3609    1.9305    0.0013 S.2     1  LIG1       -0.0469
     21 H           2.3004    2.8435    0.0012 H       2  LIG2        0.0194
     22 O           1.0233    4.7633    0.0012 O.2     1  LIG1       -0.2861
     23 C           2.2544    4.0357    0.0009 C.3     3  LIG3       -0.0776
     24 H           3.0747    4.7226    0.0003 H       2  LIG2        0.0194
     25 H           2.3052    3.4203    0.8748 H       2  LIG2        0.0194
     26 H           2.3044    3.4196   -0.8725 H       2  LIG2        0.0194
@<TRIPOS>BOND
     1    13    10    1
     2    26    23    1
     3    11    10    1
     4    10     8    1
     5    10    12    1
     6     9     3    1
     7     6     1    1
     8     7     2    2
     9     1     2    1
    10     1     5    1
    11     2     3    1
    12     3     4    1
    13    24    23    1
    14     5     4    2
    15     4    14    1
    16    23    21    1
    17    23    25    1
    18    22    16    1
    19    20    15    2
    20    14    15    1
    21    14    18    2
    22    15    16    1
    23    16    17    2
    24    18    17    1
    25    17    19    1
