@<TRIPOS>MOLECULE
mol_data/noopt/geoms/mol2/5gl5gl-5gl5gl-.out
 50 49 0 0 0
SMALL
GASTEIGER

@<TRIPOS>ATOM
      1 C          -2.0792   -1.7080   -0.0002 C.3     1  LIG1        0.0570
      2 C          -0.7020   -1.7080   -0.0002 C.2     1  LIG1        0.0317
      3 C          -0.1766   -0.3757   -0.0002 C.3     1  LIG1        0.2023
      4 C          -1.1831    0.5643    0.0006 C.2     1  LIG1        0.0296
      5 S          -2.6937   -0.1528    0.0006 S.3     1  LIG1       -0.1188
      6 H          -2.8374   -2.7640   -0.0008 H       1  LIG1        0.0482
      7 S           0.0503   -2.7682   -0.0004 S.2     1  LIG1       -0.0566
      8 H           1.3104   -2.4102   -0.0005 H       1  LIG1        0.0194
      9 O           1.0969   -0.1143   -0.0009 O.3     1  LIG1       -0.2129
     10 C           1.8355   -1.3388   -0.0012 C.3     2  LIG2       -0.0776
     11 H           2.8835   -1.1232   -0.0020 H       1  LIG1        0.0194
     12 H           1.5884   -1.9046    0.8727 H       1  LIG1        0.0194
     13 H           1.5872   -1.9049   -0.8746 H       1  LIG1        0.0194
     14 C          -1.0166    1.8536    0.0014 C.3     1  LIG1        0.1056
     15 C           0.1958    2.5069    0.0015 C.2     1  LIG1        0.0403
     16 C           0.0263    3.9290    0.0017 C.3     1  LIG1        0.2062
     17 C          -1.3057    4.2790    0.0026 C.2     1  LIG1        0.0446
     18 S          -2.2953    2.9311    0.0023 S.3     1  LIG1       -0.1060
     19 S           1.3609    1.9305    0.0013 S.2     1  LIG1       -0.0559
     20 H           2.3004    2.8435    0.0012 H       2  LIG2        0.0194
     21 O           1.0233    4.7633    0.0012 O.3     1  LIG1       -0.2126
     22 C           2.2544    4.0357    0.0009 C.3     3  LIG3       -0.0776
     23 H           3.0747    4.7226    0.0003 H       2  LIG2        0.0194
     24 H           2.3052    3.4203    0.8748 H       2  LIG2        0.0194
     25 H           2.3044    3.4196   -0.8725 H       2  LIG2        0.0194
     26 C          -1.7708    5.4930    0.0035 C.2     1  LIG1        0.0435
     27 C          -1.0134    6.6433    0.0038 C.2     1  LIG1        0.0813
     28 C          -1.8373    7.8147    0.0042 C.2     1  LIG1        0.2089
     29 C          -3.1759    7.4910    0.0050 C.2     1  LIG1        0.0755
     30 S          -3.4076    5.8350    0.0046 S.3     1  LIG1       -0.0823
     31 S           0.2857    6.6886    0.0035 S.2     1  LIG1       -0.0468
     32 H           0.6797    7.9380    0.0033 H       3  LIG3        0.0194
     33 O          -1.3553    9.0221    0.0038 O.2     1  LIG1       -0.2855
     34 C           0.0736    8.9657    0.0035 C.3     4  LIG4       -0.0776
     35 H           0.4699    9.9596    0.0030 H       3  LIG3        0.0194
     36 H           0.4102    8.4479    0.8774 H       3  LIG3        0.0194
     37 H           0.4099    8.4472   -0.8699 H       3  LIG3        0.0194
     38 C          -4.1612    8.3391    0.0062 C.2     1  LIG1        0.0476
     39 C          -4.0401    9.7109    0.0065 C.2     1  LIG1        0.0810
     40 C          -5.3211   10.3514    0.0071 C.2     1  LIG1        0.2007
     41 C          -6.3459    9.4314    0.0079 C.2     1  LIG1        0.0242
     42 S          -5.7643    7.8636    0.0073 S.3     1  LIG1       -0.0910
     43 H          -7.6156    9.7105    0.0092 H       1  LIG1        0.0732
     44 S          -2.9180   10.3671    0.0061 S.2     1  LIG1       -0.0469
     45 H          -3.1639   11.6539    0.0060 H       4  LIG4        0.0194
     46 O          -5.4696   11.6429    0.0067 O.2     1  LIG1       -0.2861
     47 C          -4.1849   12.2710    0.0066 C.3     5  LIG5       -0.0776
     48 H          -4.3076   13.3340    0.0061 H       4  LIG4        0.0194
     49 H          -3.6430   11.9749    0.8804 H       4  LIG4        0.0194
     50 H          -3.6429   11.9742   -0.8669 H       4  LIG4        0.0194
@<TRIPOS>BOND
     1    13    10    1
     2    25    22    1
     3    37    34    1
     4    50    47    1
     5    11    10    1
     6    10     8    1
     7    10    12    1
     8     9     3    1
     9     6     1    1
    10     7     2    2
    11     1     2    1
    12     1     5    1
    13     2     3    1
    14     3     4    1
    15    23    22    1
    16     5     4    2
    17     4    14    1
    18    22    20    1
    19    22    24    1
    20    21    16    1
    21    19    15    2
    22    14    15    1
    23    14    18    1
    24    15    16    1
    25    16    17    1
    26    18    17    2
    27    17    26    1
    28    35    34    1
    29    32    34    1
    30    31    27    2
    31    34    36    1
    32    26    27    1
    33    26    30    2
    34    33    28    1
    35    27    28    1
    36    28    29    2
    37    30    29    1
    38    29    38    1
    39    45    47    1
    40    44    39    2
    41    48    47    1
    42    38    39    1
    43    38    42    2
    44    39    40    1
    45    47    49    1
    46    46    40    1
    47    40    41    2
    48    42    41    1
    49    41    43    1
