@<TRIPOS>MOLECULE
mol_data/noopt/geoms/mol2/5gl5gl-5gl5gl.out
 50 49 0 0 0
SMALL
GASTEIGER

@<TRIPOS>ATOM
      1 C          -2.0792   -1.7080   -0.0002 C.3     1  LIG1        0.0570
      2 C          -0.7020   -1.7080   -0.0002 C.2     1  LIG1        0.0317
      3 C          -0.1766   -0.3757   -0.0002 C.3     1  LIG1        0.2023
      4 C          -1.1831    0.5643    0.0006 C.2     1  LIG1        0.0296
      5 S          -2.6937   -0.1528    0.0006 S.3     1  LIG1       -0.1188
      6 H          -2.8374   -2.7640   -0.0008 H       1  LIG1        0.0482
      7 S           0.0503   -2.7682   -0.0004 S.2     1  LIG1       -0.0566
      8 H           1.3104   -2.4102   -0.0005 H       1  LIG1        0.0194
      9 O           1.0969   -0.1143   -0.0009 O.3     1  LIG1       -0.2129
     10 C           1.8355   -1.3388   -0.0012 C.3     2  LIG2       -0.0776
     11 H           2.8835   -1.1232   -0.0020 H       1  LIG1        0.0194
     12 H           1.5884   -1.9046    0.8727 H       1  LIG1        0.0194
     13 H           1.5872   -1.9049   -0.8746 H       1  LIG1        0.0194
     14 C          -1.0166    1.8536    0.0014 C.3     1  LIG1        0.1056
     15 C           0.1958    2.5069    0.0015 C.2     1  LIG1        0.0403
     16 C           0.0263    3.9290    0.0017 C.3     1  LIG1        0.2062
     17 C          -1.3057    4.2790    0.0026 C.2     1  LIG1        0.0446
     18 S          -2.2953    2.9311    0.0023 S.3     1  LIG1       -0.1060
     19 S           1.3609    1.9305    0.0013 S.2     1  LIG1       -0.0559
     20 H           2.3004    2.8435    0.0012 H       2  LIG2        0.0194
     21 O           1.0233    4.7633    0.0012 O.3     1  LIG1       -0.2126
     22 C           2.2544    4.0357    0.0009 C.3     3  LIG3       -0.0776
     23 H           3.0747    4.7226    0.0003 H       2  LIG2        0.0194
     24 H           2.3052    3.4203    0.8748 H       2  LIG2        0.0194
     25 H           2.3044    3.4196   -0.8725 H       2  LIG2        0.0194
     26 C          -1.7708    5.4930    0.0035 C.2     1  LIG1        0.0435
     27 C          -1.0134    6.6433    0.0038 C.2     1  LIG1        0.0813
     28 C          -1.8373    7.8147    0.0042 C.2     1  LIG1        0.2089
     29 C          -3.1759    7.4910    0.0050 C.2     1  LIG1        0.0755
     30 S          -3.4076    5.8350    0.0046 S.3     1  LIG1       -0.0823
     31 S           0.2857    6.6886    0.0035 S.2     1  LIG1       -0.0468
     32 H           0.6797    7.9380    0.0033 H       3  LIG3        0.0194
     33 O          -1.3553    9.0221    0.0038 O.2     1  LIG1       -0.2855
     34 C           0.0736    8.9657    0.0035 C.3     4  LIG4       -0.0776
     35 H           0.4699    9.9596    0.0030 H       3  LIG3        0.0194
     36 H           0.4102    8.4479    0.8774 H       3  LIG3        0.0194
     37 H           0.4099    8.4472   -0.8699 H       3  LIG3        0.0194
     38 C          -4.1612    8.3391    0.0062 C.2     1  LIG1        0.0476
     39 C          -4.0402    9.7108    0.0254 C.2     1  LIG1        0.0810
     40 C          -5.3212   10.3513    0.0201 C.2     1  LIG1        0.2007
     41 C          -6.3459    9.4314   -0.0022 C.2     1  LIG1        0.0242
     42 S          -5.7642    7.8638   -0.0165 S.3     1  LIG1       -0.0910
     43 H          -7.6155    9.7107   -0.0114 H       1  LIG1        0.0732
     44 S          -2.9182   10.3669    0.0458 S.2     1  LIG1       -0.0469
     45 H          -3.1640   11.6536    0.0527 H       4  LIG4        0.0194
     46 O          -5.4697   11.6427    0.0347 O.2     1  LIG1       -0.2861
     47 C          -4.1851   12.2709    0.0400 C.3     5  LIG5       -0.0776
     48 H          -4.3078   13.3338    0.0518 H       4  LIG4        0.0194
     49 H          -3.6420   11.9649    0.9097 H       4  LIG4        0.0194
     50 H          -3.6442   11.9841   -0.8375 H       4  LIG4        0.0194
@<TRIPOS>BOND
     1    13    10    1
     2    25    22    1
     3    37    34    1
     4    50    47    1
     5    42    41    1
     6    42    38    2
     7    43    41    1
     8    41    40    2
     9    11    10    1
    10    10     8    1
    11    10    12    1
    12     9     3    1
    13     6     1    1
    14     7     2    2
    15     1     2    1
    16     1     5    1
    17     2     3    1
    18     3     4    1
    19    23    22    1
    20     4     5    2
    21     4    14    1
    22    22    20    1
    23    22    24    1
    24    21    16    1
    25    19    15    2
    26    14    15    1
    27    14    18    1
    28    15    16    1
    29    16    17    1
    30    18    17    2
    31    17    26    1
    32    35    34    1
    33    32    34    1
    34    31    27    2
    35    34    36    1
    36    26    27    1
    37    26    30    2
    38    33    28    1
    39    27    28    1
    40    28    29    2
    41    30    29    1
    42    29    38    1
    43    38    39    1
    44    40    39    1
    45    40    46    1
    46    39    44    2
    47    47    48    1
    48    47    45    1
    49    47    49    1
