@<TRIPOS>MOLECULE
mol_data/noopt/geoms/mol2/5gl5gl-5gl-.out
 38 37 0 0 0
SMALL
GASTEIGER

@<TRIPOS>ATOM
      1 C          -2.0792   -1.7080   -0.0002 C.3     1  LIG1        0.0570
      2 C          -0.7020   -1.7080   -0.0002 C.2     1  LIG1        0.0317
      3 C          -0.1766   -0.3757   -0.0002 C.3     1  LIG1        0.2023
      4 C          -1.1831    0.5643    0.0006 C.2     1  LIG1        0.0296
      5 S          -2.6937   -0.1528    0.0006 S.3     1  LIG1       -0.1188
      6 H          -2.8374   -2.7640   -0.0008 H       1  LIG1        0.0482
      7 S           0.0503   -2.7682   -0.0004 S.2     1  LIG1       -0.0566
      8 H           1.3104   -2.4102   -0.0005 H       1  LIG1        0.0194
      9 O           1.0969   -0.1143   -0.0009 O.3     1  LIG1       -0.2129
     10 C           1.8355   -1.3388   -0.0012 C.3     2  LIG2       -0.0776
     11 H           2.8835   -1.1232   -0.0020 H       1  LIG1        0.0194
     12 H           1.5884   -1.9046    0.8727 H       1  LIG1        0.0194
     13 H           1.5872   -1.9049   -0.8746 H       1  LIG1        0.0194
     14 C          -1.0166    1.8536    0.0014 C.3     1  LIG1        0.1056
     15 C           0.1958    2.5069    0.0015 C.2     1  LIG1        0.0403
     16 C           0.0263    3.9290    0.0017 C.3     1  LIG1        0.2062
     17 C          -1.3057    4.2790    0.0026 C.2     1  LIG1        0.0446
     18 S          -2.2953    2.9311    0.0023 S.3     1  LIG1       -0.1060
     19 S           1.3609    1.9305    0.0013 S.2     1  LIG1       -0.0559
     20 H           2.3004    2.8435    0.0012 H       2  LIG2        0.0194
     21 O           1.0233    4.7633    0.0012 O.3     1  LIG1       -0.2126
     22 C           2.2544    4.0357    0.0009 C.3     3  LIG3       -0.0776
     23 H           3.0747    4.7226    0.0003 H       2  LIG2        0.0194
     24 H           2.3052    3.4203    0.8748 H       2  LIG2        0.0194
     25 H           2.3044    3.4196   -0.8725 H       2  LIG2        0.0194
     26 C          -1.7708    5.4930    0.0035 C.2     1  LIG1        0.0429
     27 C          -1.0136    6.6432    0.0227 C.2     1  LIG1        0.0806
     28 C          -1.8374    7.8147    0.0172 C.2     1  LIG1        0.2007
     29 C          -3.1758    7.4910   -0.0051 C.2     1  LIG1        0.0242
     30 S          -3.4074    5.8351   -0.0192 S.3     1  LIG1       -0.0913
     31 H          -4.1610    8.3391   -0.0144 H       1  LIG1        0.0732
     32 S           0.2854    6.6885    0.0432 S.2     1  LIG1       -0.0469
     33 H           0.6794    7.9378    0.0501 H       3  LIG3        0.0194
     34 O          -1.3555    9.0221    0.0317 O.2     1  LIG1       -0.2861
     35 C           0.0734    8.9656    0.0369 C.3     4  LIG4       -0.0776
     36 H           0.4696    9.9595    0.0487 H       3  LIG3        0.0194
     37 H           0.4064    8.4386    0.9067 H       3  LIG3        0.0194
     38 H           0.4135    8.4565   -0.8405 H       3  LIG3        0.0194
@<TRIPOS>BOND
     1    13    10    1
     2    25    22    1
     3    38    35    1
     4    30    29    1
     5    30    26    2
     6    31    29    1
     7    29    28    2
     8    11    10    1
     9    10     8    1
    10    10    12    1
    11     9     3    1
    12     6     1    1
    13     7     2    2
    14     1     2    1
    15     1     5    1
    16     2     3    1
    17     3     4    1
    18    23    22    1
    19     4     5    2
    20     4    14    1
    21    22    20    1
    22    22    24    1
    23    21    16    1
    24    19    15    2
    25    14    15    1
    26    14    18    1
    27    15    16    1
    28    16    17    1
    29    18    17    2
    30    17    26    1
    31    26    27    1
    32    28    27    1
    33    28    34    1
    34    27    32    2
    35    35    36    1
    36    35    33    1
    37    35    37    1
