@<TRIPOS>MOLECULE
mol_data/noopt/geoms/mol2/5gl5gl5gl-5gl.out
 50 49 0 0 0
SMALL
GASTEIGER

@<TRIPOS>ATOM
      1 C          -2.0792   -1.7080   -0.0002 C.3     1  LIG1        0.0573
      2 C          -0.7020   -1.7080   -0.0002 C.2     1  LIG1        0.0320
      3 C          -0.1766   -0.3757   -0.0002 C.3     1  LIG1        0.2056
      4 C          -1.1831    0.5643    0.0006 C.2     1  LIG1        0.0437
      5 S          -2.6937   -0.1528    0.0006 S.3     1  LIG1       -0.1151
      6 H          -2.8374   -2.7640   -0.0008 H       1  LIG1        0.0482
      7 S           0.0503   -2.7682   -0.0004 S.2     1  LIG1       -0.0566
      8 H           1.3104   -2.4102   -0.0005 H       1  LIG1        0.0194
      9 O           1.0969   -0.1143   -0.0009 O.3     1  LIG1       -0.2126
     10 C           1.8355   -1.3388   -0.0012 C.3     2  LIG2       -0.0776
     11 H           2.8835   -1.1232   -0.0020 H       1  LIG1        0.0194
     12 H           1.5884   -1.9046    0.8727 H       1  LIG1        0.0194
     13 H           1.5872   -1.9049   -0.8746 H       1  LIG1        0.0194
     14 C          -1.0166    1.8536    0.0014 C.2     1  LIG1        0.0388
     15 C           0.1956    2.5069    0.0205 C.2     1  LIG1        0.0544
     16 C           0.0262    3.9290    0.0147 C.3     1  LIG1        0.2098
     17 C          -1.3056    4.2790   -0.0075 C.2     1  LIG1        0.0482
     18 S          -2.2951    2.9311   -0.0215 S.3     1  LIG1       -0.0874
     19 S           1.3606    1.9305    0.0410 S.2     1  LIG1       -0.0519
     20 H           2.3001    2.8435    0.0479 H       2  LIG2        0.0194
     21 O           1.0231    4.7633    0.0291 O.3     1  LIG1       -0.2122
     22 C           2.2542    4.0357    0.0343 C.3     3  LIG3       -0.0776
     23 H           3.0745    4.7227    0.0460 H       2  LIG2        0.0194
     24 H           2.2974    3.4139    0.9041 H       2  LIG2        0.0194
     25 H           2.3120    3.4261   -0.8431 H       2  LIG2        0.0194
     26 C          -1.7706    5.4930   -0.0170 C.2     1  LIG1        0.0391
     27 C          -1.0134    6.6433   -0.0043 C.2     1  LIG1        0.0544
     28 C          -1.8371    7.8147   -0.0210 C.3     1  LIG1        0.2098
     29 C          -3.1754    7.4910   -0.0446 C.2     1  LIG1        0.0485
     30 S          -3.4072    5.8350   -0.0470 S.3     1  LIG1       -0.0874
     31 S           0.2856    6.6886    0.0196 S.2     1  LIG1       -0.0519
     32 H           0.6794    7.9380    0.0276 H       3  LIG3        0.0194
     33 O          -1.3551    9.0221   -0.0141 O.3     1  LIG1       -0.2122
     34 C           0.0737    8.9657   -0.0117 C.3     4  LIG4       -0.0776
     35 H           0.4700    9.9596   -0.0062 H       3  LIG3        0.0194
     36 H           0.4086    8.4435    0.8602 H       3  LIG3        0.0194
     37 H           0.4119    8.4518   -0.8871 H       3  LIG3        0.0194
     38 C          -4.1606    8.3390   -0.0631 C.2     1  LIG1        0.0432
     39 C          -4.0397    9.7109   -0.0560 C.2     1  LIG1        0.0806
     40 C          -5.3204   10.3513   -0.0823 C.2     1  LIG1        0.2007
     41 C          -6.3449    9.4313   -0.1072 C.2     1  LIG1        0.0242
     42 S          -5.7633    7.8636   -0.0994 S.3     1  LIG1       -0.0913
     43 H          -7.6143    9.7105   -0.1337 H       1  LIG1        0.0732
     44 S          -2.9178   10.3671   -0.0292 S.2     1  LIG1       -0.0469
     45 H          -3.1640   11.6537   -0.0202 H       4  LIG4        0.0194
     46 O          -5.4689   11.6429   -0.0821 O.2     1  LIG1       -0.2861
     47 C          -4.1843   12.2710   -0.0821 C.3     5  LIG5       -0.0776
     48 H          -4.3070   13.3340   -0.0821 H       4  LIG4        0.0194
     49 H          -3.6423   11.9746    0.7916 H       4  LIG4        0.0194
     50 H          -3.6423   11.9746   -0.9557 H       4  LIG4        0.0194
@<TRIPOS>BOND
     1    50    47    1
     2    37    34    1
     3    13    10    1
     4    25    22    1
     5    43    41    1
     6    41    42    1
     7    41    40    2
     8    42    38    2
     9    40    46    1
    10    40    39    1
    11    48    47    1
    12    47    45    1
    13    47    49    1
    14    38    39    1
    15    38    29    1
    16    39    44    2
    17    30    29    2
    18    30    26    1
    19    29    28    1
    20    18    17    1
    21    18    14    2
    22    28    33    1
    23    28    27    1
    24    26    17    2
    25    26    27    1
    26    34    35    1
    27    34    32    1
    28    34    36    1
    29    17    16    1
    30    27    31    2
    31    11    10    1
    32    10     8    1
    33    10    12    1
    34     9     3    1
    35     6     1    1
    36     7     2    2
    37     1     2    1
    38     1     5    1
    39     3     2    1
    40     3     4    1
    41     5     4    2
    42     4    14    1
    43    14    15    1
    44    16    15    1
    45    16    21    1
    46    15    19    2
    47    22    23    1
    48    22    20    1
    49    22    24    1
