@<TRIPOS>MOLECULE
mol_data/noopt/geoms/mol2/5ha5ha.out
 20 21 0 0 0
SMALL
GASTEIGER

@<TRIPOS>ATOM
      1 C          -2.0792   -1.7080   -0.0002 C.ar    1  LIG1       -0.0031
      2 C          -0.7020   -1.7080   -0.0002 C.ar    1  LIG1        0.0323
      3 C          -0.1766   -0.3757   -0.0002 C.ar    1  LIG1       -0.0257
      4 C          -1.1831    0.5643    0.0006 C.ar    1  LIG1        0.0294
      5 S          -2.6937   -0.1528    0.0006 S.2     1  LIG1       -0.0942
      6 H          -2.8374   -2.7640   -0.0008 H       1  LIG1        0.0712
      7 N           0.0503   -2.7682   -0.0004 N.pl3   1  LIG1       -0.3575
      8 H          -0.4227   -3.5125   -0.4719 H       1  LIG1        0.1423
      9 H           0.9090   -2.5675   -0.4719 H       1  LIG1        0.1423
     10 H           1.0969   -0.1143   -0.0009 H       1  LIG1        0.0647
     11 C          -1.0166    1.8536    0.0014 C.ar    1  LIG1        0.0465
     12 C           0.1956    2.5069    0.0205 C.ar    1  LIG1        0.0400
     13 C           0.0262    3.9290    0.0147 C.ar    1  LIG1       -0.0334
     14 C          -1.3056    4.2790   -0.0075 C.ar    1  LIG1       -0.0219
     15 S          -2.2951    2.9311   -0.0215 S.2     1  LIG1       -0.0942
     16 H          -1.7706    5.4930   -0.0170 H       1  LIG1        0.0694
     17 N           1.3607    1.9305    0.0410 N.pl3   1  LIG1       -0.3571
     18 H           1.3040    1.0476   -0.4251 H       1  LIG1        0.1424
     19 H           2.0281    2.5112   -0.4251 H       1  LIG1        0.1424
     20 H           1.0231    4.7632    0.0291 H       1  LIG1        0.0641
@<TRIPOS>BOND
     1     9     7    1
     2     8     7    1
     3    19    17    1
     4    18    17    1
     5    15    14   ar
     6    15    11   ar
     7    16    14    1
     8    14    13   ar
     9    10     3    1
    10     6     1    1
    11     7     2    1
    12     2     3   ar
    13     2     1   ar
    14     3     4   ar
    15     1     5   ar
    16     4     5   ar
    17     4    11    1
    18    11    12   ar
    19    13    12   ar
    20    13    20    1
    21    12    17    1
