@<TRIPOS>MOLECULE
mol_data/noopt/geoms/mol2/5ha5ha5ha-.out
 29 31 0 0 0
SMALL
GASTEIGER

@<TRIPOS>ATOM
      1 C          -2.0792   -1.7080   -0.0002 C.ar    1  LIG1       -0.0031
      2 C          -0.7020   -1.7080   -0.0002 C.ar    1  LIG1        0.0323
      3 C          -0.1766   -0.3757   -0.0002 C.ar    1  LIG1       -0.0257
      4 C          -1.1831    0.5643    0.0006 C.ar    1  LIG1        0.0295
      5 S          -2.6937   -0.1528    0.0006 S.2     1  LIG1       -0.0942
      6 H          -2.8374   -2.7640   -0.0008 H       1  LIG1        0.0712
      7 N           0.0503   -2.7682   -0.0004 N.pl3   1  LIG1       -0.3575
      8 H          -0.4227   -3.5125   -0.4719 H       1  LIG1        0.1423
      9 H           0.9090   -2.5675   -0.4719 H       1  LIG1        0.1423
     10 H           1.0969   -0.1143   -0.0009 H       1  LIG1        0.0647
     11 C          -1.0166    1.8536    0.0014 C.ar    1  LIG1        0.0471
     12 C           0.1956    2.5069    0.0205 C.ar    1  LIG1        0.0406
     13 C           0.0262    3.9290    0.0147 C.ar    1  LIG1       -0.0250
     14 C          -1.3056    4.2790   -0.0075 C.ar    1  LIG1        0.0301
     15 S          -2.2951    2.9311   -0.0215 S.2     1  LIG1       -0.0853
     16 N           1.3607    1.9305    0.0410 N.pl3   1  LIG1       -0.3570
     17 H           1.3040    1.0476   -0.4251 H       1  LIG1        0.1424
     18 H           2.0281    2.5112   -0.4251 H       1  LIG1        0.1424
     19 H           1.0231    4.7632    0.0291 H       1  LIG1        0.0648
     20 C          -1.7706    5.4930   -0.0170 C.ar    1  LIG1        0.0465
     21 C          -1.0134    6.6433   -0.0043 C.ar    1  LIG1        0.0400
     22 C          -1.8371    7.8147   -0.0210 C.ar    1  LIG1       -0.0334
     23 C          -3.1754    7.4910   -0.0446 C.ar    1  LIG1       -0.0219
     24 S          -3.4072    5.8350   -0.0470 S.2     1  LIG1       -0.0942
     25 H          -4.1606    8.3390   -0.0631 H       1  LIG1        0.0694
     26 N           0.2856    6.6886    0.0196 N.pl3   1  LIG1       -0.3571
     27 H           0.6558    5.8845   -0.4456 H       1  LIG1        0.1424
     28 H           0.5989    7.5165   -0.4457 H       1  LIG1        0.1424
     29 H          -1.3552    9.0221   -0.0141 H       1  LIG1        0.0641
@<TRIPOS>BOND
     1     9     7    1
     2     8     7    1
     3    28    26    1
     4    27    26    1
     5    18    16    1
     6    17    16    1
     7    25    23    1
     8    24    23   ar
     9    24    20   ar
    10    23    22   ar
    11    15    14   ar
    12    15    11   ar
    13    22    29    1
    14    22    21   ar
    15    20    14    1
    16    20    21   ar
    17    14    13   ar
    18    21    26    1
    19    10     3    1
    20     6     1    1
    21     7     2    1
    22     3     2   ar
    23     3     4   ar
    24     2     1   ar
    25     1     5   ar
    26     5     4   ar
    27     4    11    1
    28    11    12   ar
    29    13    12   ar
    30    13    19    1
    31    12    16    1
