@<TRIPOS>MOLECULE
mol_data/noopt/geoms/mol2/5ha5ha5ha-5ha-.out
 38 41 0 0 0
SMALL
GASTEIGER

@<TRIPOS>ATOM
      1 C          -2.0792   -1.7080   -0.0002 C.ar    1  LIG1       -0.0031
      2 C          -0.7020   -1.7080   -0.0002 C.ar    1  LIG1        0.0323
      3 C          -0.1766   -0.3757   -0.0002 C.ar    1  LIG1       -0.0257
      4 C          -1.1831    0.5643    0.0006 C.ar    1  LIG1        0.0295
      5 S          -2.6937   -0.1528    0.0006 S.2     1  LIG1       -0.0942
      6 H          -2.8374   -2.7640   -0.0008 H       1  LIG1        0.0712
      7 N           0.0503   -2.7682   -0.0004 N.pl3   1  LIG1       -0.3575
      8 H          -0.4227   -3.5125   -0.4719 H       1  LIG1        0.1423
      9 H           0.9090   -2.5675   -0.4719 H       1  LIG1        0.1423
     10 H           1.0969   -0.1143   -0.0009 H       1  LIG1        0.0647
     11 C          -1.0166    1.8536    0.0014 C.ar    1  LIG1        0.0471
     12 C           0.1956    2.5069    0.0205 C.ar    1  LIG1        0.0406
     13 C           0.0262    3.9290    0.0147 C.ar    1  LIG1       -0.0250
     14 C          -1.3056    4.2790   -0.0075 C.ar    1  LIG1        0.0301
     15 S          -2.2951    2.9311   -0.0215 S.2     1  LIG1       -0.0853
     16 N           1.3607    1.9305    0.0410 N.pl3   1  LIG1       -0.3570
     17 H           1.3040    1.0476   -0.4251 H       1  LIG1        0.1424
     18 H           2.0281    2.5112   -0.4251 H       1  LIG1        0.1424
     19 H           1.0231    4.7632    0.0291 H       1  LIG1        0.0648
     20 C          -1.7706    5.4930   -0.0170 C.ar    1  LIG1        0.0472
     21 C          -1.0134    6.6433   -0.0043 C.ar    1  LIG1        0.0406
     22 C          -1.8371    7.8147   -0.0210 C.ar    1  LIG1       -0.0250
     23 C          -3.1754    7.4910   -0.0446 C.ar    1  LIG1        0.0301
     24 S          -3.4072    5.8350   -0.0470 S.2     1  LIG1       -0.0853
     25 N           0.2856    6.6886    0.0196 N.pl3   1  LIG1       -0.3570
     26 H           0.6558    5.8845   -0.4456 H       1  LIG1        0.1424
     27 H           0.5989    7.5165   -0.4457 H       1  LIG1        0.1424
     28 H          -1.3552    9.0221   -0.0141 H       1  LIG1        0.0648
     29 C          -4.1606    8.3390   -0.0631 C.ar    1  LIG1        0.0465
     30 C          -4.0394    9.7108   -0.0749 C.ar    1  LIG1        0.0400
     31 C          -5.3202   10.3513   -0.0953 C.ar    1  LIG1       -0.0334
     32 C          -6.3451    9.4313   -0.0971 C.ar    1  LIG1       -0.0219
     33 S          -5.7637    7.8636   -0.0756 S.2     1  LIG1       -0.0942
     34 H          -7.6146    9.7105   -0.1131 H       1  LIG1        0.0694
     35 N          -2.9171   10.3670   -0.0689 N.pl3   1  LIG1       -0.3571
     36 H          -2.2154    9.8315   -0.5388 H       1  LIG1        0.1424
     37 H          -3.0396   11.2412   -0.5388 H       1  LIG1        0.1424
     38 H          -5.4685   11.6427   -0.1100 H       1  LIG1        0.0641
@<TRIPOS>BOND
     1    37    35    1
     2    36    35    1
     3     9     7    1
     4     8     7    1
     5    27    25    1
     6    26    25    1
     7    18    16    1
     8    17    16    1
     9    34    32    1
    10    38    31    1
    11    32    31   ar
    12    32    33   ar
    13    31    30   ar
    14    33    29   ar
    15    30    35    1
    16    30    29   ar
    17    29    23    1
    18    24    23   ar
    19    24    20   ar
    20    23    22   ar
    21    15    14   ar
    22    15    11   ar
    23    22    28    1
    24    22    21   ar
    25    20    14    1
    26    20    21   ar
    27    14    13   ar
    28    21    25    1
    29    10     3    1
    30     6     1    1
    31     7     2    1
    32     2     3   ar
    33     2     1   ar
    34     3     4   ar
    35     1     5   ar
    36     5     4   ar
    37     4    11    1
    38    11    12   ar
    39    13    12   ar
    40    13    19    1
    41    12    16    1
