@<TRIPOS>MOLECULE
mol_data/noopt/geoms/mol2/5ha5ha-5ha5ha.out
 38 41 0 0 0
SMALL
GASTEIGER

@<TRIPOS>ATOM
      1 C          -2.0792   -1.7080   -0.0002 C.ar    1  LIG1       -0.0031
      2 C          -0.7020   -1.7080   -0.0002 C.ar    1  LIG1        0.0323
      3 C          -0.1766   -0.3757   -0.0002 C.ar    1  LIG1       -0.0257
      4 C          -1.1831    0.5643    0.0006 C.ar    1  LIG1        0.0295
      5 S          -2.6937   -0.1528    0.0006 S.2     1  LIG1       -0.0942
      6 H          -2.8374   -2.7640   -0.0008 H       1  LIG1        0.0712
      7 N           0.0503   -2.7682   -0.0004 N.pl3   1  LIG1       -0.3575
      8 H          -0.4227   -3.5125   -0.4719 H       1  LIG1        0.1423
      9 H           0.9090   -2.5675   -0.4719 H       1  LIG1        0.1423
     10 H           1.0969   -0.1143   -0.0009 H       1  LIG1        0.0647
     11 C          -1.0166    1.8536    0.0014 C.ar    1  LIG1        0.0471
     12 C           0.1958    2.5069    0.0015 C.ar    1  LIG1        0.0406
     13 C           0.0263    3.9290    0.0017 C.ar    1  LIG1       -0.0250
     14 C          -1.3057    4.2790    0.0026 C.ar    1  LIG1        0.0301
     15 S          -2.2953    2.9311    0.0023 S.2     1  LIG1       -0.0853
     16 N           1.3610    1.9305    0.0013 N.pl3   1  LIG1       -0.3570
     17 H           1.2976    1.0509   -0.4702 H       1  LIG1        0.1424
     18 H           2.0217    2.5145   -0.4703 H       1  LIG1        0.1424
     19 H           1.0233    4.7632    0.0012 H       1  LIG1        0.0648
     20 C          -1.7708    5.4930    0.0035 C.ar    1  LIG1        0.0472
     21 C          -1.0134    6.6433    0.0038 C.ar    1  LIG1        0.0406
     22 C          -1.8373    7.8147    0.0042 C.ar    1  LIG1       -0.0250
     23 C          -3.1759    7.4910    0.0050 C.ar    1  LIG1        0.0301
     24 S          -3.4076    5.8350    0.0046 S.2     1  LIG1       -0.0853
     25 N           0.2858    6.6886    0.0035 N.pl3   1  LIG1       -0.3570
     26 H           0.6473    5.8842   -0.4680 H       1  LIG1        0.1424
     27 H           0.5903    7.5162   -0.4681 H       1  LIG1        0.1424
     28 H          -1.3553    9.0221    0.0038 H       1  LIG1        0.0648
     29 C          -4.1612    8.3391    0.0062 C.ar    1  LIG1        0.0465
     30 C          -4.0402    9.7108    0.0254 C.ar    1  LIG1        0.0400
     31 C          -5.3212   10.3513    0.0201 C.ar    1  LIG1       -0.0334
     32 C          -6.3459    9.4314   -0.0022 C.ar    1  LIG1       -0.0219
     33 S          -5.7642    7.8638   -0.0165 S.2     1  LIG1       -0.0942
     34 H          -7.6155    9.7107   -0.0114 H       1  LIG1        0.0694
     35 N          -2.9181   10.3669    0.0458 N.pl3   1  LIG1       -0.3571
     36 H          -2.2119    9.8340   -0.4203 H       1  LIG1        0.1424
     37 H          -3.0361   11.2437   -0.4203 H       1  LIG1        0.1424
     38 H          -5.4697   11.6427    0.0347 H       1  LIG1        0.0641
@<TRIPOS>BOND
     1     9     7    1
     2     8     7    1
     3    18    16    1
     4    17    16    1
     5    27    25    1
     6    26    25    1
     7    37    35    1
     8    36    35    1
     9    33    32   ar
    10    33    29   ar
    11    34    32    1
    12    32    31   ar
    13    10     3    1
    14     6     1    1
    15     7     2    1
    16     1     2   ar
    17     1     5   ar
    18     3     2   ar
    19     3     4   ar
    20     5     4   ar
    21     4    11    1
    22    19    13    1
    23    16    12    1
    24    11    12   ar
    25    11    15   ar
    26    12    13   ar
    27    13    14   ar
    28    15    14   ar
    29    14    20    1
    30    25    21    1
    31    20    21   ar
    32    20    24   ar
    33    28    22    1
    34    21    22   ar
    35    22    23   ar
    36    24    23   ar
    37    23    29    1
    38    29    30   ar
    39    31    30   ar
    40    31    38    1
    41    30    35    1
