@<TRIPOS>MOLECULE
mol_data/noopt/geoms/mol2/5ha5ha-5ha-5ha.out
 38 41 0 0 0
SMALL
GASTEIGER

@<TRIPOS>ATOM
      1 C          -2.0792   -1.7080   -0.0002 C.ar    1  LIG1       -0.0031
      2 C          -0.7020   -1.7080   -0.0002 C.ar    1  LIG1        0.0323
      3 C          -0.1766   -0.3757   -0.0002 C.ar    1  LIG1       -0.0257
      4 C          -1.1831    0.5643    0.0006 C.ar    1  LIG1        0.0295
      5 S          -2.6937   -0.1528    0.0006 S.2     1  LIG1       -0.0942
      6 H          -2.8374   -2.7640   -0.0008 H       1  LIG1        0.0712
      7 N           0.0503   -2.7682   -0.0004 N.pl3   1  LIG1       -0.3575
      8 H          -0.4227   -3.5125   -0.4719 H       1  LIG1        0.1423
      9 H           0.9090   -2.5675   -0.4719 H       1  LIG1        0.1423
     10 H           1.0969   -0.1143   -0.0009 H       1  LIG1        0.0647
     11 C          -1.0166    1.8536    0.0014 C.ar    1  LIG1        0.0471
     12 C           0.1958    2.5069    0.0015 C.ar    1  LIG1        0.0406
     13 C           0.0263    3.9290    0.0017 C.ar    1  LIG1       -0.0250
     14 C          -1.3057    4.2790    0.0026 C.ar    1  LIG1        0.0301
     15 S          -2.2953    2.9311    0.0023 S.2     1  LIG1       -0.0853
     16 N           1.3610    1.9305    0.0013 N.pl3   1  LIG1       -0.3570
     17 H           1.2976    1.0509   -0.4702 H       1  LIG1        0.1424
     18 H           2.0217    2.5145   -0.4703 H       1  LIG1        0.1424
     19 H           1.0233    4.7632    0.0012 H       1  LIG1        0.0648
     20 C          -1.7708    5.4930    0.0035 C.ar    1  LIG1        0.0472
     21 C          -1.0136    6.6432    0.0227 C.ar    1  LIG1        0.0406
     22 C          -1.8374    7.8147    0.0172 C.ar    1  LIG1       -0.0250
     23 C          -3.1758    7.4910   -0.0051 C.ar    1  LIG1        0.0301
     24 S          -3.4074    5.8351   -0.0192 S.2     1  LIG1       -0.0853
     25 N           0.2855    6.6885    0.0432 N.pl3   1  LIG1       -0.3570
     26 H           0.6544    5.8843   -0.4229 H       1  LIG1        0.1424
     27 H           0.5976    7.5163   -0.4229 H       1  LIG1        0.1424
     28 H          -1.3555    9.0220    0.0317 H       1  LIG1        0.0648
     29 C          -4.1610    8.3391   -0.0144 C.ar    1  LIG1        0.0465
     30 C          -4.0401    9.7110   -0.0016 C.ar    1  LIG1        0.0400
     31 C          -5.3209   10.3515   -0.0181 C.ar    1  LIG1       -0.0334
     32 C          -6.3455    9.4316   -0.0417 C.ar    1  LIG1       -0.0219
     33 S          -5.7639    7.8638   -0.0443 S.2     1  LIG1       -0.0942
     34 H          -7.6151    9.7108   -0.0601 H       1  LIG1        0.0694
     35 N          -2.9181   10.3671    0.0222 N.pl3   1  LIG1       -0.3571
     36 H          -2.2108    9.8349   -0.4430 H       1  LIG1        0.1424
     37 H          -3.0351   11.2445   -0.4430 H       1  LIG1        0.1424
     38 H          -5.4695   11.6429   -0.0111 H       1  LIG1        0.0641
@<TRIPOS>BOND
     1     9     7    1
     2     8     7    1
     3    18    16    1
     4    17    16    1
     5    37    35    1
     6    36    35    1
     7    27    25    1
     8    26    25    1
     9    34    32    1
    10    33    32   ar
    11    33    29   ar
    12    32    31   ar
    13    24    23   ar
    14    24    20   ar
    15    31    38    1
    16    31    30   ar
    17    29    23    1
    18    29    30   ar
    19    23    22   ar
    20    30    35    1
    21    10     3    1
    22     6     1    1
    23     7     2    1
    24     1     2   ar
    25     1     5   ar
    26     2     3   ar
    27     3     4   ar
    28     4     5   ar
    29     4    11    1
    30    19    13    1
    31    16    12    1
    32    11    12   ar
    33    11    15   ar
    34    12    13   ar
    35    13    14   ar
    36    15    14   ar
    37    14    20    1
    38    20    21   ar
    39    22    21   ar
    40    22    28    1
    41    21    25    1
