@<TRIPOS>MOLECULE
mol_data/noopt/geoms/mol2/5hd5hd-5hd-5hd-.out
 42 45 0 0 0
SMALL
GASTEIGER

@<TRIPOS>ATOM
      1 C          -2.0792   -1.7080   -0.0002 C.ar    1  LIG1       -0.0018
      2 C          -0.7020   -1.7080   -0.0002 C.ar    1  LIG1        0.0499
      3 C          -0.1766   -0.3757   -0.0002 C.ar    1  LIG1        0.0876
      4 C          -1.1831    0.5643    0.0006 C.ar    1  LIG1        0.0469
      5 S          -2.6937   -0.1528    0.0006 S.2     1  LIG1       -0.0929
      6 H          -2.8374   -2.7640   -0.0008 H       1  LIG1        0.0712
      7 N           0.0503   -2.7682   -0.0004 N.pl3   1  LIG1       -0.3565
      8 H          -0.4227   -3.5125   -0.4719 H       1  LIG1        0.1424
      9 H           0.9090   -2.5675   -0.4719 H       1  LIG1        0.1424
     10 N           2.2200    0.1162   -0.0015 N.1     1  LIG1       -0.1908
     11 C           1.0969   -0.1143   -0.0009 C.1     1  LIG1        0.1022
     12 C          -1.0166    1.8536    0.0014 C.ar    1  LIG1        0.0497
     13 C           0.1958    2.5069    0.0015 C.ar    1  LIG1        0.0583
     14 C           0.0263    3.9290    0.0017 C.ar    1  LIG1        0.0883
     15 C          -1.3057    4.2790    0.0026 C.ar    1  LIG1        0.0475
     16 S          -2.2953    2.9311    0.0023 S.2     1  LIG1       -0.0839
     17 N           1.3610    1.9305    0.0013 N.pl3   1  LIG1       -0.3561
     18 H           1.2976    1.0509   -0.4702 H       1  LIG1        0.1424
     19 H           2.0217    2.5145   -0.4703 H       1  LIG1        0.1424
     20 N           1.9027    5.4990    0.0007 N.1     1  LIG1       -0.1908
     21 C           1.0233    4.7632    0.0012 C.1     1  LIG1        0.1022
     22 C          -1.7708    5.4930    0.0035 C.ar    1  LIG1        0.0497
     23 C          -1.0136    6.6432    0.0227 C.ar    1  LIG1        0.0583
     24 C          -1.8374    7.8147    0.0172 C.ar    1  LIG1        0.0883
     25 C          -3.1758    7.4910   -0.0051 C.ar    1  LIG1        0.0475
     26 S          -3.4074    5.8351   -0.0192 S.2     1  LIG1       -0.0839
     27 N           0.2855    6.6885    0.0432 N.pl3   1  LIG1       -0.3561
     28 H           0.6544    5.8843   -0.4229 H       1  LIG1        0.1424
     29 H           0.5976    7.5163   -0.4229 H       1  LIG1        0.1424
     30 N          -0.9305   10.0869    0.0445 N.1     1  LIG1       -0.1908
     31 C          -1.3555    9.0220    0.0317 C.1     1  LIG1        0.1022
     32 C          -4.1610    8.3391   -0.0144 C.ar    1  LIG1        0.0491
     33 C          -4.0399    9.7110   -0.0205 C.ar    1  LIG1        0.0577
     34 C          -5.3208   10.3515   -0.0311 C.ar    1  LIG1        0.0800
     35 C          -6.3457    9.4315   -0.0316 C.ar    1  LIG1       -0.0045
     36 S          -5.7642    7.8638   -0.0205 S.2     1  LIG1       -0.0929
     37 H          -7.6153    9.7107   -0.0396 H       1  LIG1        0.0707
     38 N          -2.9176   10.3672   -0.0175 N.pl3   1  LIG1       -0.3561
     39 H          -2.2168    9.8311   -0.4881 H       1  LIG1        0.1424
     40 H          -3.0410   11.2408   -0.4882 H       1  LIG1        0.1424
     41 N          -5.6000   12.7820   -0.0461 N.1     1  LIG1       -0.1908
     42 C          -5.4692   11.6430   -0.0391 C.1     1  LIG1        0.1016
@<TRIPOS>BOND
     1    40    38    1
     2    39    38    1
     3     9     7    1
     4     8     7    1
     5    19    17    1
     6    18    17    1
     7    29    27    1
     8    28    27    1
     9    41    42    3
    10    37    35    1
    11    42    34    1
    12    35    34   ar
    13    35    36   ar
    14    34    33   ar
    15    33    38    1
    16    33    32   ar
    17    36    32   ar
    18    26    25   ar
    19    26    22   ar
    20    32    25    1
    21    25    24   ar
    22    10    11    3
    23    11     3    1
    24     6     1    1
    25     7     2    1
    26     1     2   ar
    27     1     5   ar
    28     2     3   ar
    29     3     4   ar
    30     4     5   ar
    31     4    12    1
    32    20    21    3
    33    21    14    1
    34    17    13    1
    35    12    13   ar
    36    12    16   ar
    37    13    14   ar
    38    14    15   ar
    39    16    15   ar
    40    15    22    1
    41    22    23   ar
    42    24    23   ar
    43    24    31    1
    44    23    27    1
    45    31    30    3
