@<TRIPOS>MOLECULE
mol_data/noopt/geoms/mol2/5hd5hd-.out
 22 23 0 0 0
SMALL
GASTEIGER

@<TRIPOS>ATOM
      1 C          -2.0792   -1.7080   -0.0002 C.ar    1  LIG1       -0.0018
      2 C          -0.7020   -1.7080   -0.0002 C.ar    1  LIG1        0.0499
      3 C          -0.1766   -0.3757   -0.0002 C.ar    1  LIG1        0.0876
      4 C          -1.1831    0.5643    0.0006 C.ar    1  LIG1        0.0469
      5 S          -2.6937   -0.1528    0.0006 S.2     1  LIG1       -0.0929
      6 H          -2.8374   -2.7640   -0.0008 H       1  LIG1        0.0712
      7 N           0.0503   -2.7682   -0.0004 N.pl3   1  LIG1       -0.3565
      8 H          -0.4227   -3.5125   -0.4719 H       1  LIG1        0.1424
      9 H           0.9090   -2.5675   -0.4719 H       1  LIG1        0.1424
     10 N           2.2200    0.1162   -0.0015 N.1     1  LIG1       -0.1908
     11 C           1.0969   -0.1143   -0.0009 C.1     1  LIG1        0.1022
     12 C          -1.0166    1.8536    0.0014 C.ar    1  LIG1        0.0491
     13 C           0.1958    2.5069    0.0015 C.ar    1  LIG1        0.0577
     14 C           0.0263    3.9290    0.0017 C.ar    1  LIG1        0.0800
     15 C          -1.3057    4.2790    0.0026 C.ar    1  LIG1       -0.0045
     16 S          -2.2953    2.9311    0.0023 S.2     1  LIG1       -0.0929
     17 H          -1.7708    5.4930    0.0035 H       1  LIG1        0.0707
     18 N           1.3610    1.9305    0.0013 N.pl3   1  LIG1       -0.3561
     19 H           1.2976    1.0509   -0.4702 H       1  LIG1        0.1424
     20 H           2.0217    2.5145   -0.4703 H       1  LIG1        0.1424
     21 N           1.9027    5.4990    0.0007 N.1     1  LIG1       -0.1908
     22 C           1.0233    4.7632    0.0012 C.1     1  LIG1        0.1016
@<TRIPOS>BOND
     1     9     7    1
     2     8     7    1
     3    20    18    1
     4    19    18    1
     5    10    11    3
     6    11     3    1
     7     6     1    1
     8     7     2    1
     9     2     3   ar
    10     2     1   ar
    11     3     4   ar
    12     1     5   ar
    13     4     5   ar
    14     4    12    1
    15    21    22    3
    16    22    14    1
    17    18    13    1
    18    12    13   ar
    19    12    16   ar
    20    13    14   ar
    21    14    15   ar
    22    16    15   ar
    23    15    17    1
