@<TRIPOS>MOLECULE
mol_data/noopt/geoms/mol2/5hd5hd-5hd5hd.out
 42 45 0 0 0
SMALL
GASTEIGER

@<TRIPOS>ATOM
      1 C          -2.0792   -1.7080   -0.0002 C.ar    1  LIG1       -0.0018
      2 C          -0.7020   -1.7080   -0.0002 C.ar    1  LIG1        0.0499
      3 C          -0.1766   -0.3757   -0.0002 C.ar    1  LIG1        0.0876
      4 C          -1.1831    0.5643    0.0006 C.ar    1  LIG1        0.0469
      5 S          -2.6937   -0.1528    0.0006 S.2     1  LIG1       -0.0929
      6 H          -2.8374   -2.7640   -0.0008 H       1  LIG1        0.0712
      7 N           0.0503   -2.7682   -0.0004 N.pl3   1  LIG1       -0.3565
      8 H          -0.4227   -3.5125   -0.4719 H       1  LIG1        0.1424
      9 H           0.9090   -2.5675   -0.4719 H       1  LIG1        0.1424
     10 N           2.2200    0.1162   -0.0015 N.1     1  LIG1       -0.1908
     11 C           1.0969   -0.1143   -0.0009 C.1     1  LIG1        0.1022
     12 C          -1.0166    1.8536    0.0014 C.ar    1  LIG1        0.0497
     13 C           0.1958    2.5069    0.0015 C.ar    1  LIG1        0.0583
     14 C           0.0263    3.9290    0.0017 C.ar    1  LIG1        0.0883
     15 C          -1.3057    4.2790    0.0026 C.ar    1  LIG1        0.0475
     16 S          -2.2953    2.9311    0.0023 S.2     1  LIG1       -0.0839
     17 N           1.3610    1.9305    0.0013 N.pl3   1  LIG1       -0.3561
     18 H           1.2976    1.0509   -0.4702 H       1  LIG1        0.1424
     19 H           2.0217    2.5145   -0.4703 H       1  LIG1        0.1424
     20 N           1.9027    5.4990    0.0007 N.1     1  LIG1       -0.1908
     21 C           1.0233    4.7632    0.0012 C.1     1  LIG1        0.1022
     22 C          -1.7708    5.4930    0.0035 C.ar    1  LIG1        0.0497
     23 C          -1.0134    6.6433    0.0038 C.ar    1  LIG1        0.0583
     24 C          -1.8373    7.8147    0.0042 C.ar    1  LIG1        0.0883
     25 C          -3.1759    7.4910    0.0050 C.ar    1  LIG1        0.0475
     26 S          -3.4076    5.8350    0.0046 S.2     1  LIG1       -0.0839
     27 N           0.2858    6.6886    0.0035 N.pl3   1  LIG1       -0.3561
     28 H           0.6473    5.8842   -0.4680 H       1  LIG1        0.1424
     29 H           0.5903    7.5162   -0.4681 H       1  LIG1        0.1424
     30 N          -0.9302   10.0870    0.0034 N.1     1  LIG1       -0.1908
     31 C          -1.3553    9.0221    0.0038 C.1     1  LIG1        0.1022
     32 C          -4.1612    8.3391    0.0062 C.ar    1  LIG1        0.0491
     33 C          -4.0402    9.7108    0.0254 C.ar    1  LIG1        0.0577
     34 C          -5.3212   10.3513    0.0201 C.ar    1  LIG1        0.0800
     35 C          -6.3459    9.4314   -0.0022 C.ar    1  LIG1       -0.0045
     36 S          -5.7642    7.8638   -0.0165 S.2     1  LIG1       -0.0929
     37 H          -7.6155    9.7107   -0.0114 H       1  LIG1        0.0707
     38 N          -2.9181   10.3669    0.0458 N.pl3   1  LIG1       -0.3561
     39 H          -2.2119    9.8340   -0.4203 H       1  LIG1        0.1424
     40 H          -3.0361   11.2437   -0.4203 H       1  LIG1        0.1424
     41 N          -5.6007   12.7817    0.0476 N.1     1  LIG1       -0.1908
     42 C          -5.4697   11.6427    0.0347 C.1     1  LIG1        0.1016
@<TRIPOS>BOND
     1     9     7    1
     2     8     7    1
     3    19    17    1
     4    18    17    1
     5    29    27    1
     6    28    27    1
     7    40    38    1
     8    39    38    1
     9    36    35   ar
    10    36    32   ar
    11    37    35    1
    12    35    34   ar
    13    10    11    3
    14    11     3    1
    15     6     1    1
    16     7     2    1
    17     2     3   ar
    18     2     1   ar
    19     3     4   ar
    20     1     5   ar
    21     5     4   ar
    22     4    12    1
    23    20    21    3
    24    21    14    1
    25    17    13    1
    26    12    13   ar
    27    12    16   ar
    28    13    14   ar
    29    14    15   ar
    30    16    15   ar
    31    15    22    1
    32    30    31    3
    33    27    23    1
    34    22    23   ar
    35    22    26   ar
    36    31    24    1
    37    23    24   ar
    38    24    25   ar
    39    26    25   ar
    40    25    32    1
    41    32    33   ar
    42    34    33   ar
    43    34    42    1
    44    33    38    1
    45    42    41    3
