@<TRIPOS>MOLECULE
mol_data/noopt/geoms/mol2/5hd5hd5hd.out
 32 34 0 0 0
SMALL
GASTEIGER

@<TRIPOS>ATOM
      1 C          -2.0792   -1.7080   -0.0002 C.ar    1  LIG1       -0.0018
      2 C          -0.7020   -1.7080   -0.0002 C.ar    1  LIG1        0.0499
      3 C          -0.1766   -0.3757   -0.0002 C.ar    1  LIG1        0.0876
      4 C          -1.1831    0.5643    0.0006 C.ar    1  LIG1        0.0469
      5 S          -2.6937   -0.1528    0.0006 S.2     1  LIG1       -0.0929
      6 H          -2.8374   -2.7640   -0.0008 H       1  LIG1        0.0712
      7 N           0.0503   -2.7682   -0.0004 N.pl3   1  LIG1       -0.3565
      8 H          -0.4227   -3.5125   -0.4719 H       1  LIG1        0.1424
      9 H           0.9090   -2.5675   -0.4719 H       1  LIG1        0.1424
     10 N           2.2200    0.1162   -0.0015 N.1     1  LIG1       -0.1908
     11 C           1.0969   -0.1143   -0.0009 C.1     1  LIG1        0.1022
     12 C          -1.0166    1.8536    0.0014 C.ar    1  LIG1        0.0497
     13 C           0.1956    2.5069    0.0205 C.ar    1  LIG1        0.0583
     14 C           0.0262    3.9290    0.0147 C.ar    1  LIG1        0.0883
     15 C          -1.3056    4.2790   -0.0075 C.ar    1  LIG1        0.0475
     16 S          -2.2951    2.9311   -0.0215 S.2     1  LIG1       -0.0839
     17 N           1.3607    1.9305    0.0410 N.pl3   1  LIG1       -0.3561
     18 H           1.3040    1.0476   -0.4251 H       1  LIG1        0.1424
     19 H           2.0281    2.5112   -0.4251 H       1  LIG1        0.1424
     20 N           1.9024    5.4990    0.0418 N.1     1  LIG1       -0.1908
     21 C           1.0231    4.7632    0.0291 C.1     1  LIG1        0.1022
     22 C          -1.7706    5.4930   -0.0170 C.ar    1  LIG1        0.0491
     23 C          -1.0132    6.6432   -0.0232 C.ar    1  LIG1        0.0577
     24 C          -1.8369    7.8147   -0.0340 C.ar    1  LIG1        0.0800
     25 C          -3.1756    7.4910   -0.0345 C.ar    1  LIG1       -0.0045
     26 S          -3.4074    5.8350   -0.0232 S.2     1  LIG1       -0.0929
     27 H          -4.1608    8.3391   -0.0426 H       1  LIG1        0.0707
     28 N           0.2861    6.6885   -0.0202 N.pl3   1  LIG1       -0.3561
     29 H           0.6487    5.8841   -0.4908 H       1  LIG1        0.1424
     30 H           0.5919    7.5161   -0.4908 H       1  LIG1        0.1424
     31 N          -0.9297   10.0868   -0.0492 N.1     1  LIG1       -0.1908
     32 C          -1.3549    9.0220   -0.0421 C.1     1  LIG1        0.1016
@<TRIPOS>BOND
     1    30    28    1
     2    29    28    1
     3     9     7    1
     4     8     7    1
     5    19    17    1
     6    18    17    1
     7    31    32    3
     8    27    25    1
     9    32    24    1
    10    25    24   ar
    11    25    26   ar
    12    24    23   ar
    13    23    28    1
    14    23    22   ar
    15    26    22   ar
    16    16    15   ar
    17    16    12   ar
    18    22    15    1
    19    15    14   ar
    20    10    11    3
    21    11     3    1
    22     6     1    1
    23     7     2    1
    24     1     2   ar
    25     1     5   ar
    26     3     2   ar
    27     3     4   ar
    28     5     4   ar
    29     4    12    1
    30    12    13   ar
    31    14    13   ar
    32    14    21    1
    33    13    17    1
    34    21    20    3
