@<TRIPOS>MOLECULE
mol_data/noopt/geoms/mol2/5hd5hd.out
 22 23 0 0 0
SMALL
GASTEIGER

@<TRIPOS>ATOM
      1 C          -2.0792   -1.7080   -0.0002 C.ar    1  LIG1       -0.0018
      2 C          -0.7020   -1.7080   -0.0002 C.ar    1  LIG1        0.0499
      3 C          -0.1766   -0.3757   -0.0002 C.ar    1  LIG1        0.0876
      4 C          -1.1831    0.5643    0.0006 C.ar    1  LIG1        0.0469
      5 S          -2.6937   -0.1528    0.0006 S.2     1  LIG1       -0.0929
      6 H          -2.8374   -2.7640   -0.0008 H       1  LIG1        0.0712
      7 N           0.0503   -2.7682   -0.0004 N.pl3   1  LIG1       -0.3565
      8 H          -0.4227   -3.5125   -0.4719 H       1  LIG1        0.1424
      9 H           0.9090   -2.5675   -0.4719 H       1  LIG1        0.1424
     10 N           2.2200    0.1162   -0.0015 N.1     1  LIG1       -0.1908
     11 C           1.0969   -0.1143   -0.0009 C.1     1  LIG1        0.1022
     12 C          -1.0166    1.8536    0.0014 C.ar    1  LIG1        0.0491
     13 C           0.1956    2.5069    0.0205 C.ar    1  LIG1        0.0577
     14 C           0.0262    3.9290    0.0147 C.ar    1  LIG1        0.0800
     15 C          -1.3056    4.2790   -0.0075 C.ar    1  LIG1       -0.0045
     16 S          -2.2951    2.9311   -0.0215 S.2     1  LIG1       -0.0929
     17 H          -1.7706    5.4930   -0.0170 H       1  LIG1        0.0707
     18 N           1.3607    1.9305    0.0410 N.pl3   1  LIG1       -0.3561
     19 H           1.3040    1.0476   -0.4251 H       1  LIG1        0.1424
     20 H           2.0281    2.5112   -0.4251 H       1  LIG1        0.1424
     21 N           1.9024    5.4990    0.0418 N.1     1  LIG1       -0.1908
     22 C           1.0231    4.7632    0.0291 C.1     1  LIG1        0.1016
@<TRIPOS>BOND
     1     9     7    1
     2     8     7    1
     3    20    18    1
     4    19    18    1
     5    16    15   ar
     6    16    12   ar
     7    17    15    1
     8    15    14   ar
     9    10    11    3
    10    11     3    1
    11     6     1    1
    12     7     2    1
    13     1     2   ar
    14     1     5   ar
    15     3     2   ar
    16     3     4   ar
    17     5     4   ar
    18     4    12    1
    19    12    13   ar
    20    14    13   ar
    21    14    22    1
    22    13    18    1
    23    22    21    3
