@<TRIPOS>MOLECULE
mol_data/noopt/geoms/mol2/5hd5hd5hd-5hd-.out
 42 45 0 0 0
SMALL
GASTEIGER

@<TRIPOS>ATOM
      1 C          -2.0792   -1.7080   -0.0002 C.ar    1  LIG1       -0.0018
      2 C          -0.7020   -1.7080   -0.0002 C.ar    1  LIG1        0.0499
      3 C          -0.1766   -0.3757   -0.0002 C.ar    1  LIG1        0.0876
      4 C          -1.1831    0.5643    0.0006 C.ar    1  LIG1        0.0469
      5 S          -2.6937   -0.1528    0.0006 S.2     1  LIG1       -0.0929
      6 H          -2.8374   -2.7640   -0.0008 H       1  LIG1        0.0712
      7 N           0.0503   -2.7682   -0.0004 N.pl3   1  LIG1       -0.3565
      8 H          -0.4227   -3.5125   -0.4719 H       1  LIG1        0.1424
      9 H           0.9090   -2.5675   -0.4719 H       1  LIG1        0.1424
     10 N           2.2200    0.1162   -0.0015 N.1     1  LIG1       -0.1908
     11 C           1.0969   -0.1143   -0.0009 C.1     1  LIG1        0.1022
     12 C          -1.0166    1.8536    0.0014 C.ar    1  LIG1        0.0497
     13 C           0.1956    2.5069    0.0205 C.ar    1  LIG1        0.0583
     14 C           0.0262    3.9290    0.0147 C.ar    1  LIG1        0.0883
     15 C          -1.3056    4.2790   -0.0075 C.ar    1  LIG1        0.0475
     16 S          -2.2951    2.9311   -0.0215 S.2     1  LIG1       -0.0839
     17 N           1.3607    1.9305    0.0410 N.pl3   1  LIG1       -0.3561
     18 H           1.3040    1.0476   -0.4251 H       1  LIG1        0.1424
     19 H           2.0281    2.5112   -0.4251 H       1  LIG1        0.1424
     20 N           1.9024    5.4990    0.0418 N.1     1  LIG1       -0.1908
     21 C           1.0231    4.7632    0.0291 C.1     1  LIG1        0.1022
     22 C          -1.7706    5.4930   -0.0170 C.ar    1  LIG1        0.0497
     23 C          -1.0134    6.6433   -0.0043 C.ar    1  LIG1        0.0583
     24 C          -1.8371    7.8147   -0.0210 C.ar    1  LIG1        0.0883
     25 C          -3.1754    7.4910   -0.0446 C.ar    1  LIG1        0.0475
     26 S          -3.4072    5.8350   -0.0470 S.2     1  LIG1       -0.0839
     27 N           0.2856    6.6886    0.0196 N.pl3   1  LIG1       -0.3561
     28 H           0.6558    5.8845   -0.4456 H       1  LIG1        0.1424
     29 H           0.5989    7.5165   -0.4457 H       1  LIG1        0.1424
     30 N          -0.9301   10.0870   -0.0081 N.1     1  LIG1       -0.1908
     31 C          -1.3552    9.0221   -0.0141 C.1     1  LIG1        0.1022
     32 C          -4.1606    8.3390   -0.0631 C.ar    1  LIG1        0.0491
     33 C          -4.0394    9.7108   -0.0749 C.ar    1  LIG1        0.0577
     34 C          -5.3202   10.3513   -0.0953 C.ar    1  LIG1        0.0800
     35 C          -6.3451    9.4313   -0.0971 C.ar    1  LIG1       -0.0045
     36 S          -5.7637    7.8636   -0.0756 S.2     1  LIG1       -0.0929
     37 H          -7.6146    9.7105   -0.1131 H       1  LIG1        0.0707
     38 N          -2.9171   10.3670   -0.0689 N.pl3   1  LIG1       -0.3561
     39 H          -2.2154    9.8315   -0.5388 H       1  LIG1        0.1424
     40 H          -3.0396   11.2412   -0.5388 H       1  LIG1        0.1424
     41 N          -5.5993   12.7818   -0.1230 N.1     1  LIG1       -0.1908
     42 C          -5.4685   11.6427   -0.1100 C.1     1  LIG1        0.1016
@<TRIPOS>BOND
     1    40    38    1
     2    39    38    1
     3     9     7    1
     4     8     7    1
     5    29    27    1
     6    28    27    1
     7    19    17    1
     8    18    17    1
     9    41    42    3
    10    37    35    1
    11    42    34    1
    12    35    34   ar
    13    35    36   ar
    14    34    33   ar
    15    36    32   ar
    16    33    38    1
    17    33    32   ar
    18    32    25    1
    19    26    25   ar
    20    26    22   ar
    21    25    24   ar
    22    16    15   ar
    23    16    12   ar
    24    24    31    1
    25    24    23   ar
    26    22    15    1
    27    22    23   ar
    28    31    30    3
    29    15    14   ar
    30    23    27    1
    31    10    11    3
    32    11     3    1
    33     6     1    1
    34     7     2    1
    35     2     3   ar
    36     2     1   ar
    37     3     4   ar
    38     1     5   ar
    39     5     4   ar
    40     4    12    1
    41    12    13   ar
    42    14    13   ar
    43    14    21    1
    44    13    17    1
    45    21    20    3
