@<TRIPOS>MOLECULE
mol_data/noopt/geoms/mol2/5he.out
 13 13 0 0 0
SMALL
GASTEIGER

@<TRIPOS>ATOM
      1 C          -2.0792   -1.7080   -0.0002 C.ar    1  LIG1       -0.0024
      2 C          -0.7020   -1.7080   -0.0002 C.ar    1  LIG1        0.0472
      3 C          -0.1766   -0.3757   -0.0002 C.ar    1  LIG1        0.0523
      4 C          -1.1831    0.5643    0.0006 C.ar    1  LIG1       -0.0071
      5 S          -2.6937   -0.1528    0.0006 S.2     1  LIG1       -0.1020
      6 H          -2.8374   -2.7640   -0.0008 H       1  LIG1        0.0712
      7 H          -1.0166    1.8536    0.0014 H       1  LIG1        0.0706
      8 N           0.0503   -2.7682   -0.0004 N.pl3   1  LIG1       -0.3566
      9 H          -0.4227   -3.5125   -0.4719 H       1  LIG1        0.1424
     10 H           0.9090   -2.5675   -0.4719 H       1  LIG1        0.1424
     11 C           1.0969   -0.1143   -0.0009 C.1     1  LIG1       -0.0673
     12 C           2.2735    0.1272   -0.0015 C.1     1  LIG1       -0.1138
     13 H           3.3217    0.3424   -0.0021 H       1  LIG1        0.1232
@<TRIPOS>BOND
     1    10     8    1
     2     9     8    1
     3    13    12    1
     4    12    11    3
     5    11     3    1
     6     6     1    1
     7     8     2    1
     8     1     2   ar
     9     1     5   ar
    10     2     3   ar
    11     3     4   ar
    12     4     5   ar
    13     4     7    1
