@<TRIPOS>MOLECULE
mol_data/noopt/geoms/mol2/5he5he-.out
 24 25 0 0 0
SMALL
GASTEIGER

@<TRIPOS>ATOM
      1 C          -2.0792   -1.7080   -0.0002 C.ar    1  LIG1       -0.0018
      2 C          -0.7020   -1.7080   -0.0002 C.ar    1  LIG1        0.0479
      3 C          -0.1766   -0.3757   -0.0002 C.ar    1  LIG1        0.0606
      4 C          -1.1831    0.5643    0.0006 C.ar    1  LIG1        0.0449
      5 S          -2.6937   -0.1528    0.0006 S.2     1  LIG1       -0.0930
      6 H          -2.8374   -2.7640   -0.0008 H       1  LIG1        0.0712
      7 N           0.0503   -2.7682   -0.0004 N.pl3   1  LIG1       -0.3566
      8 H          -0.4227   -3.5125   -0.4719 H       1  LIG1        0.1424
      9 H           0.9090   -2.5675   -0.4719 H       1  LIG1        0.1424
     10 C           1.0969   -0.1143   -0.0009 C.1     1  LIG1       -0.0667
     11 C           2.2735    0.1272   -0.0015 C.1     1  LIG1       -0.1138
     12 H           3.3217    0.3424   -0.0021 H       1  LIG1        0.1232
     13 C          -1.0166    1.8536    0.0014 C.ar    1  LIG1        0.0489
     14 C           0.1958    2.5069    0.0015 C.ar    1  LIG1        0.0556
     15 C           0.0263    3.9290    0.0017 C.ar    1  LIG1        0.0529
     16 C          -1.3057    4.2790    0.0026 C.ar    1  LIG1       -0.0065
     17 S          -2.2953    2.9311    0.0023 S.2     1  LIG1       -0.0930
     18 H          -1.7708    5.4930    0.0035 H       1  LIG1        0.0706
     19 N           1.3610    1.9305    0.0013 N.pl3   1  LIG1       -0.3561
     20 H           1.2976    1.0509   -0.4702 H       1  LIG1        0.1424
     21 H           2.0217    2.5145   -0.4703 H       1  LIG1        0.1424
     22 C           1.0233    4.7632    0.0012 C.1     1  LIG1       -0.0673
     23 C           1.9446    5.5340    0.0007 C.1     1  LIG1       -0.1138
     24 H           2.7652    6.2207    0.0002 H       1  LIG1        0.1232
@<TRIPOS>BOND
     1     9     7    1
     2     8     7    1
     3    21    19    1
     4    20    19    1
     5    12    11    1
     6    11    10    3
     7    10     3    1
     8     6     1    1
     9     7     2    1
    10     2     3   ar
    11     2     1   ar
    12     3     4   ar
    13     1     5   ar
    14    24    23    1
    15     5     4   ar
    16     4    13    1
    17    23    22    3
    18    22    15    1
    19    19    14    1
    20    13    14   ar
    21    13    17   ar
    22    14    15   ar
    23    15    16   ar
    24    17    16   ar
    25    16    18    1
