@<TRIPOS>MOLECULE
mol_data/noopt/geoms/mol2/5he5he5he-5he.out
 46 49 0 0 0
SMALL
GASTEIGER

@<TRIPOS>ATOM
      1 C          -2.0792   -1.7080   -0.0002 C.ar    1  LIG1       -0.0018
      2 C          -0.7020   -1.7080   -0.0002 C.ar    1  LIG1        0.0479
      3 C          -0.1766   -0.3757   -0.0002 C.ar    1  LIG1        0.0606
      4 C          -1.1831    0.5643    0.0006 C.ar    1  LIG1        0.0449
      5 S          -2.6937   -0.1528    0.0006 S.2     1  LIG1       -0.0930
      6 H          -2.8374   -2.7640   -0.0008 H       1  LIG1        0.0712
      7 N           0.0503   -2.7682   -0.0004 N.pl3   1  LIG1       -0.3566
      8 H          -0.4227   -3.5125   -0.4719 H       1  LIG1        0.1424
      9 H           0.9090   -2.5675   -0.4719 H       1  LIG1        0.1424
     10 C           1.0969   -0.1143   -0.0009 C.1     1  LIG1       -0.0667
     11 C           2.2735    0.1272   -0.0015 C.1     1  LIG1       -0.1138
     12 H           3.3217    0.3424   -0.0021 H       1  LIG1        0.1232
     13 C          -1.0166    1.8536    0.0014 C.ar    1  LIG1        0.0496
     14 C           0.1956    2.5069    0.0205 C.ar    1  LIG1        0.0563
     15 C           0.0262    3.9290    0.0147 C.ar    1  LIG1        0.0612
     16 C          -1.3056    4.2790   -0.0075 C.ar    1  LIG1        0.0455
     17 S          -2.2951    2.9311   -0.0215 S.2     1  LIG1       -0.0840
     18 N           1.3607    1.9305    0.0410 N.pl3   1  LIG1       -0.3561
     19 H           1.3040    1.0476   -0.4251 H       1  LIG1        0.1424
     20 H           2.0281    2.5112   -0.4251 H       1  LIG1        0.1424
     21 C           1.0231    4.7632    0.0291 C.1     1  LIG1       -0.0666
     22 C           1.9443    5.5341    0.0424 C.1     1  LIG1       -0.1138
     23 H           2.7648    6.2207    0.0542 H       1  LIG1        0.1232
     24 C          -1.7706    5.4930   -0.0170 C.ar    1  LIG1        0.0496
     25 C          -1.0134    6.6433   -0.0043 C.ar    1  LIG1        0.0563
     26 C          -1.8371    7.8147   -0.0210 C.ar    1  LIG1        0.0612
     27 C          -3.1754    7.4910   -0.0446 C.ar    1  LIG1        0.0455
     28 S          -3.4072    5.8350   -0.0470 S.2     1  LIG1       -0.0840
     29 N           0.2856    6.6886    0.0196 N.pl3   1  LIG1       -0.3561
     30 H           0.6558    5.8845   -0.4456 H       1  LIG1        0.1424
     31 H           0.5989    7.5165   -0.4457 H       1  LIG1        0.1424
     32 C          -1.3552    9.0221   -0.0141 C.1     1  LIG1       -0.0666
     33 C          -0.9099   10.1377   -0.0078 C.1     1  LIG1       -0.1138
     34 H          -0.5132   11.1314   -0.0022 H       1  LIG1        0.1232
     35 C          -4.1606    8.3390   -0.0631 C.ar    1  LIG1        0.0490
     36 C          -4.0397    9.7109   -0.0560 C.ar    1  LIG1        0.0556
     37 C          -5.3204   10.3513   -0.0823 C.ar    1  LIG1        0.0529
     38 C          -6.3449    9.4313   -0.1072 C.ar    1  LIG1       -0.0065
     39 S          -5.7633    7.8636   -0.0994 S.2     1  LIG1       -0.0930
     40 H          -7.6143    9.7105   -0.1337 H       1  LIG1        0.0706
     41 N          -2.9178   10.3671   -0.0292 N.pl3   1  LIG1       -0.3561
     42 H          -2.2095    9.8355   -0.4936 H       1  LIG1        0.1424
     43 H          -3.0340   11.2451   -0.4937 H       1  LIG1        0.1424
     44 C          -5.4689   11.6428   -0.0821 C.1     1  LIG1       -0.0673
     45 C          -5.6062   12.8362   -0.0819 C.1     1  LIG1       -0.1138
     46 H          -5.7284   13.8991   -0.0818 H       1  LIG1        0.1232
@<TRIPOS>BOND
     1    43    41    1
     2    42    41    1
     3     9     7    1
     4     8     7    1
     5    31    29    1
     6    30    29    1
     7    20    18    1
     8    19    18    1
     9    40    38    1
    10    38    39   ar
    11    38    37   ar
    12    39    35   ar
    13    37    44    1
    14    37    36   ar
    15    44    45    3
    16    45    46    1
    17    35    36   ar
    18    35    27    1
    19    36    41    1
    20    28    27   ar
    21    28    24   ar
    22    27    26   ar
    23    17    16   ar
    24    17    13   ar
    25    26    32    1
    26    26    25   ar
    27    24    16    1
    28    24    25   ar
    29    32    33    3
    30    33    34    1
    31    16    15   ar
    32    25    29    1
    33    12    11    1
    34    11    10    3
    35    10     3    1
    36     6     1    1
    37     7     2    1
    38     1     2   ar
    39     1     5   ar
    40     2     3   ar
    41     3     4   ar
    42     5     4   ar
    43     4    13    1
    44    13    14   ar
    45    15    14   ar
    46    15    21    1
    47    14    18    1
    48    21    22    3
    49    22    23    1
