@<TRIPOS>MOLECULE
mol_data/noopt/geoms/mol2/5he5he-5he-5he-.out
 46 49 0 0 0
SMALL
GASTEIGER

@<TRIPOS>ATOM
      1 C          -2.0792   -1.7080   -0.0002 C.ar    1  LIG1       -0.0018
      2 C          -0.7020   -1.7080   -0.0002 C.ar    1  LIG1        0.0479
      3 C          -0.1766   -0.3757   -0.0002 C.ar    1  LIG1        0.0606
      4 C          -1.1831    0.5643    0.0006 C.ar    1  LIG1        0.0449
      5 S          -2.6937   -0.1528    0.0006 S.2     1  LIG1       -0.0930
      6 H          -2.8374   -2.7640   -0.0008 H       1  LIG1        0.0712
      7 N           0.0503   -2.7682   -0.0004 N.pl3   1  LIG1       -0.3566
      8 H          -0.4227   -3.5125   -0.4719 H       1  LIG1        0.1424
      9 H           0.9090   -2.5675   -0.4719 H       1  LIG1        0.1424
     10 C           1.0969   -0.1143   -0.0009 C.1     1  LIG1       -0.0667
     11 C           2.2735    0.1272   -0.0015 C.1     1  LIG1       -0.1138
     12 H           3.3217    0.3424   -0.0021 H       1  LIG1        0.1232
     13 C          -1.0166    1.8536    0.0014 C.ar    1  LIG1        0.0496
     14 C           0.1958    2.5069    0.0015 C.ar    1  LIG1        0.0563
     15 C           0.0263    3.9290    0.0017 C.ar    1  LIG1        0.0612
     16 C          -1.3057    4.2790    0.0026 C.ar    1  LIG1        0.0455
     17 S          -2.2953    2.9311    0.0023 S.2     1  LIG1       -0.0840
     18 N           1.3610    1.9305    0.0013 N.pl3   1  LIG1       -0.3561
     19 H           1.2976    1.0509   -0.4702 H       1  LIG1        0.1424
     20 H           2.0217    2.5145   -0.4703 H       1  LIG1        0.1424
     21 C           1.0233    4.7632    0.0012 C.1     1  LIG1       -0.0666
     22 C           1.9446    5.5340    0.0007 C.1     1  LIG1       -0.1138
     23 H           2.7652    6.2207    0.0002 H       1  LIG1        0.1232
     24 C          -1.7708    5.4930    0.0035 C.ar    1  LIG1        0.0496
     25 C          -1.0136    6.6432    0.0227 C.ar    1  LIG1        0.0563
     26 C          -1.8374    7.8147    0.0172 C.ar    1  LIG1        0.0612
     27 C          -3.1758    7.4910   -0.0051 C.ar    1  LIG1        0.0455
     28 S          -3.4074    5.8351   -0.0192 S.2     1  LIG1       -0.0840
     29 N           0.2855    6.6885    0.0432 N.pl3   1  LIG1       -0.3561
     30 H           0.6544    5.8843   -0.4229 H       1  LIG1        0.1424
     31 H           0.5976    7.5163   -0.4229 H       1  LIG1        0.1424
     32 C          -1.3555    9.0220    0.0317 C.1     1  LIG1       -0.0666
     33 C          -0.9102   10.1376    0.0451 C.1     1  LIG1       -0.1138
     34 H          -0.5136   11.1313    0.0570 H       1  LIG1        0.1232
     35 C          -4.1610    8.3391   -0.0144 C.ar    1  LIG1        0.0490
     36 C          -4.0399    9.7110   -0.0205 C.ar    1  LIG1        0.0556
     37 C          -5.3208   10.3515   -0.0311 C.ar    1  LIG1        0.0529
     38 C          -6.3457    9.4315   -0.0316 C.ar    1  LIG1       -0.0065
     39 S          -5.7642    7.8638   -0.0205 S.2     1  LIG1       -0.0930
     40 H          -7.6153    9.7107   -0.0396 H       1  LIG1        0.0706
     41 N          -2.9176   10.3672   -0.0175 N.pl3   1  LIG1       -0.3561
     42 H          -2.2168    9.8311   -0.4881 H       1  LIG1        0.1424
     43 H          -3.0410   11.2408   -0.4882 H       1  LIG1        0.1424
     44 C          -5.4692   11.6430   -0.0391 C.1     1  LIG1       -0.0673
     45 C          -5.6063   12.8363   -0.0464 C.1     1  LIG1       -0.1138
     46 H          -5.7284   13.8993   -0.0530 H       1  LIG1        0.1232
@<TRIPOS>BOND
     1    43    41    1
     2    42    41    1
     3     9     7    1
     4     8     7    1
     5    20    18    1
     6    19    18    1
     7    31    29    1
     8    30    29    1
     9    46    45    1
    10    45    44    3
    11    40    38    1
    12    44    37    1
    13    38    37   ar
    14    38    39   ar
    15    37    36   ar
    16    36    41    1
    17    36    35   ar
    18    39    35   ar
    19    28    27   ar
    20    28    24   ar
    21    35    27    1
    22    27    26   ar
    23    12    11    1
    24    11    10    3
    25    10     3    1
    26     6     1    1
    27     7     2    1
    28     1     2   ar
    29     1     5   ar
    30     2     3   ar
    31     3     4   ar
    32    23    22    1
    33     4     5   ar
    34     4    13    1
    35    22    21    3
    36    21    15    1
    37    18    14    1
    38    13    14   ar
    39    13    17   ar
    40    14    15   ar
    41    15    16   ar
    42    17    16   ar
    43    16    24    1
    44    24    25   ar
    45    26    25   ar
    46    26    32    1
    47    25    29    1
    48    32    33    3
    49    33    34    1
