@<TRIPOS>MOLECULE
mol_data/noopt/geoms/mol2/5he5he-5he.out
 35 37 0 0 0
SMALL
GASTEIGER

@<TRIPOS>ATOM
      1 C          -2.0792   -1.7080   -0.0002 C.ar    1  LIG1       -0.0018
      2 C          -0.7020   -1.7080   -0.0002 C.ar    1  LIG1        0.0479
      3 C          -0.1766   -0.3757   -0.0002 C.ar    1  LIG1        0.0606
      4 C          -1.1831    0.5643    0.0006 C.ar    1  LIG1        0.0449
      5 S          -2.6937   -0.1528    0.0006 S.2     1  LIG1       -0.0930
      6 H          -2.8374   -2.7640   -0.0008 H       1  LIG1        0.0712
      7 N           0.0503   -2.7682   -0.0004 N.pl3   1  LIG1       -0.3566
      8 H          -0.4227   -3.5125   -0.4719 H       1  LIG1        0.1424
      9 H           0.9090   -2.5675   -0.4719 H       1  LIG1        0.1424
     10 C           1.0969   -0.1143   -0.0009 C.1     1  LIG1       -0.0667
     11 C           2.2735    0.1272   -0.0015 C.1     1  LIG1       -0.1138
     12 H           3.3217    0.3424   -0.0021 H       1  LIG1        0.1232
     13 C          -1.0166    1.8536    0.0014 C.ar    1  LIG1        0.0496
     14 C           0.1958    2.5069    0.0015 C.ar    1  LIG1        0.0563
     15 C           0.0263    3.9290    0.0017 C.ar    1  LIG1        0.0612
     16 C          -1.3057    4.2790    0.0026 C.ar    1  LIG1        0.0455
     17 S          -2.2953    2.9311    0.0023 S.2     1  LIG1       -0.0840
     18 N           1.3610    1.9305    0.0013 N.pl3   1  LIG1       -0.3561
     19 H           1.2976    1.0509   -0.4702 H       1  LIG1        0.1424
     20 H           2.0217    2.5145   -0.4703 H       1  LIG1        0.1424
     21 C           1.0233    4.7632    0.0012 C.1     1  LIG1       -0.0666
     22 C           1.9446    5.5340    0.0007 C.1     1  LIG1       -0.1138
     23 H           2.7652    6.2207    0.0002 H       1  LIG1        0.1232
     24 C          -1.7708    5.4930    0.0035 C.ar    1  LIG1        0.0490
     25 C          -1.0134    6.6433    0.0038 C.ar    1  LIG1        0.0556
     26 C          -1.8373    7.8147    0.0042 C.ar    1  LIG1        0.0529
     27 C          -3.1759    7.4910    0.0050 C.ar    1  LIG1       -0.0065
     28 S          -3.4076    5.8350    0.0046 S.2     1  LIG1       -0.0930
     29 H          -4.1612    8.3391    0.0062 H       1  LIG1        0.0706
     30 N           0.2858    6.6886    0.0035 N.pl3   1  LIG1       -0.3561
     31 H           0.6473    5.8842   -0.4680 H       1  LIG1        0.1424
     32 H           0.5903    7.5162   -0.4681 H       1  LIG1        0.1424
     33 C          -1.3553    9.0221    0.0038 C.1     1  LIG1       -0.0673
     34 C          -0.9100   10.1377    0.0034 C.1     1  LIG1       -0.1138
     35 H          -0.5133   11.1315    0.0030 H       1  LIG1        0.1232
@<TRIPOS>BOND
     1     9     7    1
     2     8     7    1
     3    20    18    1
     4    19    18    1
     5    32    30    1
     6    31    30    1
     7    12    11    1
     8    11    10    3
     9    10     3    1
    10     6     1    1
    11     7     2    1
    12     1     2   ar
    13     1     5   ar
    14     3     2   ar
    15     3     4   ar
    16    23    22    1
    17     5     4   ar
    18     4    13    1
    19    22    21    3
    20    21    15    1
    21    18    14    1
    22    13    14   ar
    23    13    17   ar
    24    14    15   ar
    25    15    16   ar
    26    17    16   ar
    27    16    24    1
    28    35    34    1
    29    34    33    3
    30    30    25    1
    31    24    25   ar
    32    24    28   ar
    33    33    26    1
    34    25    26   ar
    35    26    27   ar
    36    28    27   ar
    37    27    29    1
