@<TRIPOS>MOLECULE
mol_data/noopt/geoms/mol2/5he5he5he.out
 35 37 0 0 0
SMALL
GASTEIGER

@<TRIPOS>ATOM
      1 C          -2.0792   -1.7080   -0.0002 C.ar    1  LIG1       -0.0018
      2 C          -0.7020   -1.7080   -0.0002 C.ar    1  LIG1        0.0479
      3 C          -0.1766   -0.3757   -0.0002 C.ar    1  LIG1        0.0606
      4 C          -1.1831    0.5643    0.0006 C.ar    1  LIG1        0.0449
      5 S          -2.6937   -0.1528    0.0006 S.2     1  LIG1       -0.0930
      6 H          -2.8374   -2.7640   -0.0008 H       1  LIG1        0.0712
      7 N           0.0503   -2.7682   -0.0004 N.pl3   1  LIG1       -0.3566
      8 H          -0.4227   -3.5125   -0.4719 H       1  LIG1        0.1424
      9 H           0.9090   -2.5675   -0.4719 H       1  LIG1        0.1424
     10 C           1.0969   -0.1143   -0.0009 C.1     1  LIG1       -0.0667
     11 C           2.2735    0.1272   -0.0015 C.1     1  LIG1       -0.1138
     12 H           3.3217    0.3424   -0.0021 H       1  LIG1        0.1232
     13 C          -1.0166    1.8536    0.0014 C.ar    1  LIG1        0.0496
     14 C           0.1956    2.5069    0.0205 C.ar    1  LIG1        0.0563
     15 C           0.0262    3.9290    0.0147 C.ar    1  LIG1        0.0612
     16 C          -1.3056    4.2790   -0.0075 C.ar    1  LIG1        0.0455
     17 S          -2.2951    2.9311   -0.0215 S.2     1  LIG1       -0.0840
     18 N           1.3607    1.9305    0.0410 N.pl3   1  LIG1       -0.3561
     19 H           1.3040    1.0476   -0.4251 H       1  LIG1        0.1424
     20 H           2.0281    2.5112   -0.4251 H       1  LIG1        0.1424
     21 C           1.0231    4.7632    0.0291 C.1     1  LIG1       -0.0666
     22 C           1.9443    5.5341    0.0424 C.1     1  LIG1       -0.1138
     23 H           2.7648    6.2207    0.0542 H       1  LIG1        0.1232
     24 C          -1.7706    5.4930   -0.0170 C.ar    1  LIG1        0.0490
     25 C          -1.0132    6.6432   -0.0232 C.ar    1  LIG1        0.0556
     26 C          -1.8369    7.8147   -0.0340 C.ar    1  LIG1        0.0529
     27 C          -3.1756    7.4910   -0.0345 C.ar    1  LIG1       -0.0065
     28 S          -3.4074    5.8350   -0.0232 S.2     1  LIG1       -0.0930
     29 H          -4.1608    8.3391   -0.0426 H       1  LIG1        0.0706
     30 N           0.2861    6.6885   -0.0202 N.pl3   1  LIG1       -0.3561
     31 H           0.6487    5.8841   -0.4908 H       1  LIG1        0.1424
     32 H           0.5919    7.5161   -0.4908 H       1  LIG1        0.1424
     33 C          -1.3549    9.0220   -0.0421 C.1     1  LIG1       -0.0673
     34 C          -0.9095   10.1375   -0.0495 C.1     1  LIG1       -0.1138
     35 H          -0.5127   11.1312   -0.0562 H       1  LIG1        0.1232
@<TRIPOS>BOND
     1    32    30    1
     2    31    30    1
     3     9     7    1
     4     8     7    1
     5    20    18    1
     6    19    18    1
     7    35    34    1
     8    34    33    3
     9    29    27    1
    10    33    26    1
    11    27    26   ar
    12    27    28   ar
    13    26    25   ar
    14    25    30    1
    15    25    24   ar
    16    28    24   ar
    17    17    16   ar
    18    17    13   ar
    19    24    16    1
    20    16    15   ar
    21    12    11    1
    22    11    10    3
    23    10     3    1
    24     6     1    1
    25     7     2    1
    26     1     2   ar
    27     1     5   ar
    28     3     2   ar
    29     3     4   ar
    30     5     4   ar
    31     4    13    1
    32    13    14   ar
    33    15    14   ar
    34    15    21    1
    35    14    18    1
    36    21    22    3
    37    22    23    1
