@<TRIPOS>MOLECULE
mol_data/noopt/geoms/mol2/5he5he5he5he.out
 46 49 0 0 0
SMALL
GASTEIGER

@<TRIPOS>ATOM
      1 C          -2.0792   -1.7080   -0.0002 C.ar    1  LIG1       -0.0018
      2 C          -0.7020   -1.7080   -0.0002 C.ar    1  LIG1        0.0479
      3 C          -0.1766   -0.3757   -0.0002 C.ar    1  LIG1        0.0606
      4 C          -1.1831    0.5643    0.0006 C.ar    1  LIG1        0.0449
      5 S          -2.6937   -0.1528    0.0006 S.2     1  LIG1       -0.0930
      6 H          -2.8374   -2.7640   -0.0008 H       1  LIG1        0.0712
      7 N           0.0503   -2.7682   -0.0004 N.pl3   1  LIG1       -0.3566
      8 H          -0.4227   -3.5125   -0.4719 H       1  LIG1        0.1424
      9 H           0.9090   -2.5675   -0.4719 H       1  LIG1        0.1424
     10 C           1.0969   -0.1143   -0.0009 C.1     1  LIG1       -0.0667
     11 C           2.2735    0.1272   -0.0015 C.1     1  LIG1       -0.1138
     12 H           3.3217    0.3424   -0.0021 H       1  LIG1        0.1232
     13 C          -1.0166    1.8536    0.0014 C.ar    1  LIG1        0.0496
     14 C           0.1956    2.5069    0.0205 C.ar    1  LIG1        0.0563
     15 C           0.0262    3.9290    0.0147 C.ar    1  LIG1        0.0612
     16 C          -1.3056    4.2790   -0.0075 C.ar    1  LIG1        0.0455
     17 S          -2.2951    2.9311   -0.0215 S.2     1  LIG1       -0.0840
     18 N           1.3607    1.9305    0.0410 N.pl3   1  LIG1       -0.3561
     19 H           1.3040    1.0476   -0.4251 H       1  LIG1        0.1424
     20 H           2.0281    2.5112   -0.4251 H       1  LIG1        0.1424
     21 C           1.0231    4.7632    0.0291 C.1     1  LIG1       -0.0666
     22 C           1.9443    5.5341    0.0424 C.1     1  LIG1       -0.1138
     23 H           2.7648    6.2207    0.0542 H       1  LIG1        0.1232
     24 C          -1.7706    5.4930   -0.0170 C.ar    1  LIG1        0.0496
     25 C          -1.0132    6.6432   -0.0232 C.ar    1  LIG1        0.0563
     26 C          -1.8369    7.8147   -0.0340 C.ar    1  LIG1        0.0612
     27 C          -3.1756    7.4910   -0.0345 C.ar    1  LIG1        0.0455
     28 S          -3.4074    5.8350   -0.0232 S.2     1  LIG1       -0.0840
     29 N           0.2861    6.6885   -0.0202 N.pl3   1  LIG1       -0.3561
     30 H           0.6487    5.8841   -0.4908 H       1  LIG1        0.1424
     31 H           0.5919    7.5161   -0.4908 H       1  LIG1        0.1424
     32 C          -1.3549    9.0220   -0.0421 C.1     1  LIG1       -0.0666
     33 C          -0.9095   10.1375   -0.0495 C.1     1  LIG1       -0.1138
     34 H          -0.5127   11.1312   -0.0562 H       1  LIG1        0.1232
     35 C          -4.1608    8.3391   -0.0426 C.ar    1  LIG1        0.0490
     36 C          -4.0399    9.7109   -0.0290 C.ar    1  LIG1        0.0556
     37 C          -5.3207   10.3514   -0.0442 C.ar    1  LIG1        0.0529
     38 C          -6.3454    9.4315   -0.0677 C.ar    1  LIG1       -0.0065
     39 S          -5.7637    7.8638   -0.0716 S.2     1  LIG1       -0.0930
     40 H          -7.6149    9.7107   -0.0849 H       1  LIG1        0.0706
     41 N          -2.9178   10.3671   -0.0056 N.pl3   1  LIG1       -0.3561
     42 H          -2.2107    9.8347   -0.4709 H       1  LIG1        0.1424
     43 H          -3.0350   11.2444   -0.4709 H       1  LIG1        0.1424
     44 C          -5.4693   11.6429   -0.0363 C.1     1  LIG1       -0.0673
     45 C          -5.6065   12.8362   -0.0290 C.1     1  LIG1       -0.1138
     46 H          -5.7288   13.8992   -0.0226 H       1  LIG1        0.1232
@<TRIPOS>BOND
     1    31    29    1
     2    30    29    1
     3     9     7    1
     4     8     7    1
     5    43    41    1
     6    42    41    1
     7    20    18    1
     8    19    18    1
     9    40    38    1
    10    39    38   ar
    11    39    35   ar
    12    38    37   ar
    13    34    33    1
    14    33    32    3
    15    37    44    1
    16    37    36   ar
    17    35    27    1
    18    35    36   ar
    19    32    26    1
    20    44    45    3
    21    27    26   ar
    22    27    28   ar
    23    26    25   ar
    24    45    46    1
    25    36    41    1
    26    25    29    1
    27    25    24   ar
    28    28    24   ar
    29    17    16   ar
    30    17    13   ar
    31    24    16    1
    32    16    15   ar
    33    12    11    1
    34    11    10    3
    35    10     3    1
    36     6     1    1
    37     7     2    1
    38     2     1   ar
    39     2     3   ar
    40     1     5   ar
    41     3     4   ar
    42     5     4   ar
    43     4    13    1
    44    13    14   ar
    45    15    14   ar
    46    15    21    1
    47    14    18    1
    48    21    22    3
    49    22    23    1
