@<TRIPOS>MOLECULE
mol_data/noopt/geoms/mol2/5he5he-5he-.out
 35 37 0 0 0
SMALL
GASTEIGER

@<TRIPOS>ATOM
      1 C          -2.0792   -1.7080   -0.0002 C.ar    1  LIG1       -0.0018
      2 C          -0.7020   -1.7080   -0.0002 C.ar    1  LIG1        0.0479
      3 C          -0.1766   -0.3757   -0.0002 C.ar    1  LIG1        0.0606
      4 C          -1.1831    0.5643    0.0006 C.ar    1  LIG1        0.0449
      5 S          -2.6937   -0.1528    0.0006 S.2     1  LIG1       -0.0930
      6 H          -2.8374   -2.7640   -0.0008 H       1  LIG1        0.0712
      7 N           0.0503   -2.7682   -0.0004 N.pl3   1  LIG1       -0.3566
      8 H          -0.4227   -3.5125   -0.4719 H       1  LIG1        0.1424
      9 H           0.9090   -2.5675   -0.4719 H       1  LIG1        0.1424
     10 C           1.0969   -0.1143   -0.0009 C.1     1  LIG1       -0.0667
     11 C           2.2735    0.1272   -0.0015 C.1     1  LIG1       -0.1138
     12 H           3.3217    0.3424   -0.0021 H       1  LIG1        0.1232
     13 C          -1.0166    1.8536    0.0014 C.ar    1  LIG1        0.0496
     14 C           0.1958    2.5069    0.0015 C.ar    1  LIG1        0.0563
     15 C           0.0263    3.9290    0.0017 C.ar    1  LIG1        0.0612
     16 C          -1.3057    4.2790    0.0026 C.ar    1  LIG1        0.0455
     17 S          -2.2953    2.9311    0.0023 S.2     1  LIG1       -0.0840
     18 N           1.3610    1.9305    0.0013 N.pl3   1  LIG1       -0.3561
     19 H           1.2976    1.0509   -0.4702 H       1  LIG1        0.1424
     20 H           2.0217    2.5145   -0.4703 H       1  LIG1        0.1424
     21 C           1.0233    4.7632    0.0012 C.1     1  LIG1       -0.0666
     22 C           1.9446    5.5340    0.0007 C.1     1  LIG1       -0.1138
     23 H           2.7652    6.2207    0.0002 H       1  LIG1        0.1232
     24 C          -1.7708    5.4930    0.0035 C.ar    1  LIG1        0.0490
     25 C          -1.0136    6.6432    0.0227 C.ar    1  LIG1        0.0556
     26 C          -1.8374    7.8147    0.0172 C.ar    1  LIG1        0.0529
     27 C          -3.1758    7.4910   -0.0051 C.ar    1  LIG1       -0.0065
     28 S          -3.4074    5.8351   -0.0192 S.2     1  LIG1       -0.0930
     29 H          -4.1610    8.3391   -0.0144 H       1  LIG1        0.0706
     30 N           0.2855    6.6885    0.0432 N.pl3   1  LIG1       -0.3561
     31 H           0.6544    5.8843   -0.4229 H       1  LIG1        0.1424
     32 H           0.5976    7.5163   -0.4229 H       1  LIG1        0.1424
     33 C          -1.3555    9.0220    0.0317 C.1     1  LIG1       -0.0673
     34 C          -0.9102   10.1376    0.0451 C.1     1  LIG1       -0.1138
     35 H          -0.5136   11.1313    0.0570 H       1  LIG1        0.1232
@<TRIPOS>BOND
     1     9     7    1
     2     8     7    1
     3    20    18    1
     4    19    18    1
     5    32    30    1
     6    31    30    1
     7    28    27   ar
     8    28    24   ar
     9    29    27    1
    10    27    26   ar
    11    12    11    1
    12    11    10    3
    13    10     3    1
    14     6     1    1
    15     7     2    1
    16     1     2   ar
    17     1     5   ar
    18     3     2   ar
    19     3     4   ar
    20    23    22    1
    21     5     4   ar
    22     4    13    1
    23    22    21    3
    24    21    15    1
    25    18    14    1
    26    13    14   ar
    27    13    17   ar
    28    14    15   ar
    29    15    16   ar
    30    17    16   ar
    31    16    24    1
    32    24    25   ar
    33    26    25   ar
    34    26    33    1
    35    25    30    1
    36    33    34    3
    37    34    35    1
