@<TRIPOS>MOLECULE
mol_data/noopt/geoms/mol2/5he5he-5he5he.out
 46 49 0 0 0
SMALL
GASTEIGER

@<TRIPOS>ATOM
      1 C          -2.0792   -1.7080   -0.0002 C.ar    1  LIG1       -0.0018
      2 C          -0.7020   -1.7080   -0.0002 C.ar    1  LIG1        0.0479
      3 C          -0.1766   -0.3757   -0.0002 C.ar    1  LIG1        0.0606
      4 C          -1.1831    0.5643    0.0006 C.ar    1  LIG1        0.0449
      5 S          -2.6937   -0.1528    0.0006 S.2     1  LIG1       -0.0930
      6 H          -2.8374   -2.7640   -0.0008 H       1  LIG1        0.0712
      7 N           0.0503   -2.7682   -0.0004 N.pl3   1  LIG1       -0.3566
      8 H          -0.4227   -3.5125   -0.4719 H       1  LIG1        0.1424
      9 H           0.9090   -2.5675   -0.4719 H       1  LIG1        0.1424
     10 C           1.0969   -0.1143   -0.0009 C.1     1  LIG1       -0.0667
     11 C           2.2735    0.1272   -0.0015 C.1     1  LIG1       -0.1138
     12 H           3.3217    0.3424   -0.0021 H       1  LIG1        0.1232
     13 C          -1.0166    1.8536    0.0014 C.ar    1  LIG1        0.0496
     14 C           0.1958    2.5069    0.0015 C.ar    1  LIG1        0.0563
     15 C           0.0263    3.9290    0.0017 C.ar    1  LIG1        0.0612
     16 C          -1.3057    4.2790    0.0026 C.ar    1  LIG1        0.0455
     17 S          -2.2953    2.9311    0.0023 S.2     1  LIG1       -0.0840
     18 N           1.3610    1.9305    0.0013 N.pl3   1  LIG1       -0.3561
     19 H           1.2976    1.0509   -0.4702 H       1  LIG1        0.1424
     20 H           2.0217    2.5145   -0.4703 H       1  LIG1        0.1424
     21 C           1.0233    4.7632    0.0012 C.1     1  LIG1       -0.0666
     22 C           1.9446    5.5340    0.0007 C.1     1  LIG1       -0.1138
     23 H           2.7652    6.2207    0.0002 H       1  LIG1        0.1232
     24 C          -1.7708    5.4930    0.0035 C.ar    1  LIG1        0.0496
     25 C          -1.0134    6.6433    0.0038 C.ar    1  LIG1        0.0563
     26 C          -1.8373    7.8147    0.0042 C.ar    1  LIG1        0.0612
     27 C          -3.1759    7.4910    0.0050 C.ar    1  LIG1        0.0455
     28 S          -3.4076    5.8350    0.0046 S.2     1  LIG1       -0.0840
     29 N           0.2858    6.6886    0.0035 N.pl3   1  LIG1       -0.3561
     30 H           0.6473    5.8842   -0.4680 H       1  LIG1        0.1424
     31 H           0.5903    7.5162   -0.4681 H       1  LIG1        0.1424
     32 C          -1.3553    9.0221    0.0038 C.1     1  LIG1       -0.0666
     33 C          -0.9100   10.1377    0.0034 C.1     1  LIG1       -0.1138
     34 H          -0.5133   11.1315    0.0030 H       1  LIG1        0.1232
     35 C          -4.1612    8.3391    0.0062 C.ar    1  LIG1        0.0490
     36 C          -4.0402    9.7108    0.0254 C.ar    1  LIG1        0.0556
     37 C          -5.3212   10.3513    0.0201 C.ar    1  LIG1        0.0529
     38 C          -6.3459    9.4314   -0.0022 C.ar    1  LIG1       -0.0065
     39 S          -5.7642    7.8638   -0.0165 S.2     1  LIG1       -0.0930
     40 H          -7.6155    9.7107   -0.0114 H       1  LIG1        0.0706
     41 N          -2.9181   10.3669    0.0458 N.pl3   1  LIG1       -0.3561
     42 H          -2.2119    9.8340   -0.4203 H       1  LIG1        0.1424
     43 H          -3.0361   11.2437   -0.4203 H       1  LIG1        0.1424
     44 C          -5.4697   11.6427    0.0347 C.1     1  LIG1       -0.0673
     45 C          -5.6070   12.8360    0.0482 C.1     1  LIG1       -0.1138
     46 H          -5.7292   13.8989    0.0602 H       1  LIG1        0.1232
@<TRIPOS>BOND
     1     9     7    1
     2     8     7    1
     3    20    18    1
     4    19    18    1
     5    31    29    1
     6    30    29    1
     7    43    41    1
     8    42    41    1
     9    39    38   ar
    10    39    35   ar
    11    40    38    1
    12    38    37   ar
    13    12    11    1
    14    11    10    3
    15    10     3    1
    16     6     1    1
    17     7     2    1
    18     3     2   ar
    19     3     4   ar
    20     1     2   ar
    21     1     5   ar
    22    23    22    1
    23     4     5   ar
    24     4    13    1
    25    22    21    3
    26    21    15    1
    27    18    14    1
    28    13    14   ar
    29    13    17   ar
    30    14    15   ar
    31    15    16   ar
    32    17    16   ar
    33    16    24    1
    34    34    33    1
    35    33    32    3
    36    29    25    1
    37    24    25   ar
    38    24    28   ar
    39    32    26    1
    40    25    26   ar
    41    26    27   ar
    42    28    27   ar
    43    27    35    1
    44    35    36   ar
    45    37    36   ar
    46    37    44    1
    47    36    41    1
    48    44    45    3
    49    45    46    1
