@<TRIPOS>MOLECULE
mol_data/noopt/geoms/mol2/5hf5hf-.out
 22 22 0 0 0
SMALL
GASTEIGER

@<TRIPOS>ATOM
      1 C          -2.0792   -1.7080   -0.0002 C.ar    1  LIG1       -0.0024
      2 C          -0.7020   -1.7080   -0.0002 C.ar    1  LIG1        0.0402
      3 C          -0.1766   -0.3757   -0.0002 C.ar    1  LIG1        0.0210
      4 C          -1.1831    0.5643    0.0006 C.ar    1  LIG1        0.0374
      5 S          -2.6937   -0.1528    0.0006 S.2     1  LIG1       -0.0936
      6 H          -2.8374   -2.7640   -0.0008 H       1  LIG1        0.0712
      7 N           0.0503   -2.7682   -0.0004 N.pl3   1  LIG1       -0.3571
      8 H          -0.4227   -3.5125   -0.4719 H       1  LIG1        0.1424
      9 H           0.9090   -2.5675   -0.4719 H       1  LIG1        0.1424
     10 O           1.0969   -0.1143   -0.0009 O.3     2  HOH2       -0.2528
     11 H           1.2288    0.8366   -0.0011 H       0  HOH0        0.2528
     12 C          -1.0166    1.8536    0.0014 C.ar    1  LIG1        0.0508
     13 C           0.1958    2.5069    0.0015 C.ar    1  LIG1        0.0821
     14 C           0.0263    3.9290    0.0017 C.ar    1  LIG1        0.1450
     15 C          -1.3057    4.2790    0.0026 C.ar    1  LIG1        0.0197
     16 S          -2.2953    2.9311    0.0023 S.2     1  LIG1       -0.0905
     17 H          -1.7708    5.4930    0.0035 H       1  LIG1        0.0731
     18 N           1.3610    1.9305    0.0013 N.pl3   1  LIG1       -0.3542
     19 H           1.2976    1.0509   -0.4702 H       1  LIG1        0.1425
     20 H           2.0217    2.5145   -0.4703 H       1  LIG1        0.1425
     21 O           1.0233    4.7633    0.0012 O.3     1  LIG1       -0.5044
     22 H           0.6884    5.6629    0.0010 H       1  LIG1        0.2922
@<TRIPOS>BOND
     1     9     7    1
     2     8     7    1
     3    20    18    1
     4    19    18    1
     5    11    10    1
     6     6     1    1
     7     7     2    1
     8     2     3   ar
     9     2     1   ar
    10     3     4   ar
    11     1     5   ar
    12     4     5   ar
    13     4    12    1
    14    22    21    1
    15    21    14    1
    16    18    13    1
    17    12    13   ar
    18    12    16   ar
    19    13    14   ar
    20    14    15   ar
    21    16    15   ar
    22    15    17    1
