@<TRIPOS>MOLECULE
mol_data/noopt/geoms/mol2/5hf5hf-5hf5hf-.out
 42 42 0 0 0
SMALL
GASTEIGER

@<TRIPOS>ATOM
      1 C          -2.0792   -1.7080   -0.0002 C.ar    1  LIG1       -0.0024
      2 C          -0.7020   -1.7080   -0.0002 C.ar    1  LIG1        0.0402
      3 C          -0.1766   -0.3757   -0.0002 C.ar    1  LIG1        0.0210
      4 C          -1.1831    0.5643    0.0006 C.ar    1  LIG1        0.0373
      5 S          -2.6937   -0.1528    0.0006 S.2     1  LIG1       -0.0936
      6 H          -2.8374   -2.7640   -0.0008 H       1  LIG1        0.0712
      7 N           0.0503   -2.7682   -0.0004 N.pl3   1  LIG1       -0.3571
      8 H          -0.4227   -3.5125   -0.4719 H       1  LIG1        0.1424
      9 H           0.9090   -2.5675   -0.4719 H       1  LIG1        0.1424
     10 O           1.0969   -0.1143   -0.0009 O.3     2  HOH2       -0.2528
     11 H           1.2288    0.8366   -0.0011 H       0  HOH0        0.2528
     12 C          -1.0166    1.8536    0.0014 C.ar    1  LIG1        0.0483
     13 C           0.1958    2.5069    0.0015 C.ar    1  LIG1        0.0486
     14 C           0.0263    3.9290    0.0017 C.ar    1  LIG1        0.0216
     15 C          -1.3057    4.2790    0.0026 C.ar    1  LIG1        0.0379
     16 S          -2.2953    2.9311    0.0023 S.2     1  LIG1       -0.0846
     17 N           1.3610    1.9305    0.0013 N.pl3   1  LIG1       -0.3566
     18 H           1.2976    1.0509   -0.4702 H       1  LIG1        0.1424
     19 H           2.0217    2.5145   -0.4703 H       1  LIG1        0.1424
     20 O           1.0233    4.7633    0.0012 O.3     3  HOH3       -0.2528
     21 H           0.6884    5.6629    0.0010 H       0  HOH0        0.2528
     22 C          -1.7708    5.4930    0.0035 C.ar    1  LIG1        0.0484
     23 C          -1.0134    6.6433    0.0038 C.ar    1  LIG1        0.0486
     24 C          -1.8373    7.8147    0.0042 C.ar    1  LIG1        0.0216
     25 C          -3.1759    7.4910    0.0050 C.ar    1  LIG1        0.0380
     26 S          -3.4076    5.8350    0.0046 S.2     1  LIG1       -0.0846
     27 N           0.2858    6.6886    0.0035 N.pl3   1  LIG1       -0.3566
     28 H           0.6473    5.8842   -0.4680 H       1  LIG1        0.1424
     29 H           0.5903    7.5162   -0.4681 H       1  LIG1        0.1424
     30 O          -1.3553    9.0221    0.0038 O.3     4  HOH4       -0.2528
     31 H          -2.0770    9.6552    0.0036 H       0  HOH0        0.2528
     32 C          -4.1612    8.3391    0.0062 C.ar    1  LIG1        0.0508
     33 C          -4.0401    9.7109    0.0065 C.ar    1  LIG1        0.0821
     34 C          -5.3211   10.3514    0.0071 C.ar    1  LIG1        0.1450
     35 C          -6.3459    9.4314    0.0079 C.ar    1  LIG1        0.0197
     36 S          -5.7643    7.8636    0.0073 S.2     1  LIG1       -0.0905
     37 H          -7.6156    9.7105    0.0092 H       1  LIG1        0.0731
     38 N          -2.9179   10.3672    0.0061 N.pl3   1  LIG1       -0.3542
     39 H          -2.2181    9.8305   -0.4654 H       1  LIG1        0.1425
     40 H          -3.0424   11.2402   -0.4654 H       1  LIG1        0.1425
     41 O          -5.4696   11.6429    0.0067 O.3     1  LIG1       -0.5044
     42 H          -6.4052   11.8579    0.0067 H       1  LIG1        0.2922
@<TRIPOS>BOND
     1     9     7    1
     2     8     7    1
     3    19    17    1
     4    18    17    1
     5    29    27    1
     6    28    27    1
     7    40    38    1
     8    39    38    1
     9    11    10    1
    10     6     1    1
    11     7     2    1
    12     1     2   ar
    13     1     5   ar
    14     3     2   ar
    15     3     4   ar
    16     5     4   ar
    17     4    12    1
    18    21    20    1
    19    17    13    1
    20    12    13   ar
    21    12    16   ar
    22    13    14   ar
    23    14    15   ar
    24    16    15   ar
    25    15    22    1
    26    27    23    1
    27    22    23   ar
    28    22    26   ar
    29    31    30    1
    30    23    24   ar
    31    24    25   ar
    32    26    25   ar
    33    25    32    1
    34    38    33    1
    35    32    33   ar
    36    32    36   ar
    37    33    34   ar
    38    42    41    1
    39    41    34    1
    40    34    35   ar
    41    36    35   ar
    42    35    37    1
