@<TRIPOS>MOLECULE
mol_data/noopt/geoms/mol2/5hg.out
 12 12 0 0 0
SMALL
GASTEIGER

@<TRIPOS>ATOM
      1 C          -2.0792   -1.7080   -0.0002 C.ar    1  LIG1       -0.0026
      2 C          -0.7020   -1.7080   -0.0002 C.ar    1  LIG1        0.0450
      3 C          -0.1766   -0.3757   -0.0002 C.ar    1  LIG1        0.0324
      4 C          -1.1831    0.5643    0.0006 C.ar    1  LIG1       -0.0093
      5 S          -2.6937   -0.1528    0.0006 S.2     1  LIG1       -0.1021
      6 H          -2.8374   -2.7640   -0.0008 H       1  LIG1        0.0712
      7 H          -1.0166    1.8536    0.0014 H       1  LIG1        0.0705
      8 N           0.0503   -2.7682   -0.0004 N.pl3   1  LIG1       -0.3567
      9 H          -0.4227   -3.5125   -0.4719 H       1  LIG1        0.1424
     10 H           0.9090   -2.5675   -0.4719 H       1  LIG1        0.1424
     11 S           1.0968   -0.1143   -0.0009 S.3     1  LIG1       -0.1403
     12 H           1.2768    1.1833   -0.0011 H       1  LIG1        0.1072
@<TRIPOS>BOND
     1    10     8    1
     2     9     8    1
     3    12    11    1
     4    11     3    1
     5     6     1    1
     6     8     2    1
     7     1     2   ar
     8     1     5   ar
     9     2     3   ar
    10     3     4   ar
    11     4     5   ar
    12     4     7    1
