@<TRIPOS>MOLECULE
mol_data/noopt/geoms/mol2/5hi.out
 14 14 0 0 0
SMALL
GASTEIGER

@<TRIPOS>ATOM
      1 C          -2.0792   -1.7080   -0.0002 C.ar    1  LIG1       -0.0034
      2 C          -0.7020   -1.7080   -0.0002 C.ar    1  LIG1        0.0346
      3 C          -0.1766   -0.3757   -0.0002 C.ar    1  LIG1       -0.0228
      4 C          -1.1831    0.5643    0.0006 C.ar    1  LIG1       -0.0196
      5 S          -2.6937   -0.1528    0.0006 S.2     1  LIG1       -0.1029
      6 H          -2.8374   -2.7640   -0.0008 H       1  LIG1        0.0712
      7 H          -1.0166    1.8536    0.0014 H       1  LIG1        0.0696
      8 N           0.0503   -2.7682   -0.0004 N.pl3   1  LIG1       -0.3573
      9 H          -0.4227   -3.5125   -0.4719 H       1  LIG1        0.1423
     10 H           0.9090   -2.5675   -0.4719 H       1  LIG1        0.1423
     11 C           1.0972   -0.1142   -0.0009 C.3     1  LIG1       -0.0375
     12 H           1.2712    0.8133    0.5033 H       1  LIG1        0.0278
     13 H           1.4460   -0.0426   -1.0099 H       1  LIG1        0.0278
     14 H           1.6224   -0.8983    0.5033 H       1  LIG1        0.0278
@<TRIPOS>BOND
     1    13    11    1
     2    10     8    1
     3     9     8    1
     4    11     3    1
     5    11    14    1
     6    11    12    1
     7     6     1    1
     8     8     2    1
     9     1     2   ar
    10     1     5   ar
    11     2     3   ar
    12     3     4   ar
    13     4     5   ar
    14     4     7    1
