@<TRIPOS>MOLECULE
mol_data/noopt/geoms/mol2/5hi5hi-.out
 26 26 0 0 0
SMALL
GASTEIGER

@<TRIPOS>ATOM
      1 C          -2.0792   -1.7080   -0.0002 C.ar    1  LIG1       -0.0024
      2 C          -0.7020   -1.7080   -0.0002 C.ar    1  LIG1        0.0402
      3 C          -0.1766   -0.3757   -0.0002 C.ar    1  LIG1        0.0210
      4 C          -1.1831    0.5643    0.0006 C.ar    1  LIG1        0.0373
      5 S          -2.6937   -0.1528    0.0006 S.2     1  LIG1       -0.0936
      6 H          -2.8374   -2.7640   -0.0008 H       1  LIG1        0.0712
      7 N           0.0503   -2.7682   -0.0004 N.pl3   1  LIG1       -0.3571
      8 H          -0.4227   -3.5125   -0.4719 H       1  LIG1        0.1424
      9 H           0.9090   -2.5675   -0.4719 H       1  LIG1        0.1424
     10 C           1.0972   -0.1142   -0.0009 C.3     2  LIG2       -0.0681
     11 H           1.2712    0.8133    0.5033 H       1  LIG1        0.0227
     12 H           1.4460   -0.0426   -1.0099 H       1  LIG1        0.0227
     13 H           1.6224   -0.8983    0.5033 H       1  LIG1        0.0227
     14 C          -1.0166    1.8536    0.0014 C.ar    1  LIG1        0.0474
     15 C           0.1958    2.5069    0.0015 C.ar    1  LIG1        0.0430
     16 C           0.0263    3.9290    0.0017 C.ar    1  LIG1       -0.0222
     17 C          -1.3057    4.2790    0.0026 C.ar    1  LIG1       -0.0190
     18 S          -2.2953    2.9311    0.0023 S.2     1  LIG1       -0.0940
     19 H          -1.7708    5.4930    0.0035 H       1  LIG1        0.0697
     20 N           1.3610    1.9305    0.0013 N.pl3   1  LIG1       -0.3569
     21 H           1.2976    1.0509   -0.4702 H       1  LIG1        0.1424
     22 H           2.0217    2.5145   -0.4703 H       1  LIG1        0.1424
     23 C           1.0235    4.7634    0.0012 C.3     1  LIG1       -0.0374
     24 H           0.7366    5.6625    0.5055 H       1  LIG1        0.0278
     25 H           1.2967    4.9921   -1.0078 H       1  LIG1        0.0278
     26 H           1.8579    4.3223    0.5054 H       1  LIG1        0.0278
@<TRIPOS>BOND
     1    12    10    1
     2    25    23    1
     3     9     7    1
     4     8     7    1
     5    22    20    1
     6    21    20    1
     7    10    13    1
     8    10    11    1
     9     6     1    1
    10     7     2    1
    11     2     3   ar
    12     2     1   ar
    13     3     4   ar
    14     1     5   ar
    15     4     5   ar
    16     4    14    1
    17    23    16    1
    18    23    26    1
    19    23    24    1
    20    20    15    1
    21    14    15   ar
    22    14    18   ar
    23    15    16   ar
    24    16    17   ar
    25    18    17   ar
    26    17    19    1
