@<TRIPOS>MOLECULE
mol_data/noopt/geoms/mol2/5hi5hi-5hi5hi.out
 50 50 0 0 0
SMALL
GASTEIGER

@<TRIPOS>ATOM
      1 C          -2.0792   -1.7080   -0.0002 C.ar    1  LIG1       -0.0024
      2 C          -0.7020   -1.7080   -0.0002 C.ar    1  LIG1        0.0402
      3 C          -0.1766   -0.3757   -0.0002 C.ar    1  LIG1        0.0210
      4 C          -1.1831    0.5643    0.0006 C.ar    1  LIG1        0.0373
      5 S          -2.6937   -0.1528    0.0006 S.2     1  LIG1       -0.0936
      6 H          -2.8374   -2.7640   -0.0008 H       1  LIG1        0.0712
      7 N           0.0503   -2.7682   -0.0004 N.pl3   1  LIG1       -0.3571
      8 H          -0.4227   -3.5125   -0.4719 H       1  LIG1        0.1424
      9 H           0.9090   -2.5675   -0.4719 H       1  LIG1        0.1424
     10 C           1.0972   -0.1142   -0.0009 C.3     2  LIG2       -0.0681
     11 H           1.2712    0.8133    0.5033 H       1  LIG1        0.0227
     12 H           1.4460   -0.0426   -1.0099 H       1  LIG1        0.0227
     13 H           1.6224   -0.8983    0.5033 H       1  LIG1        0.0227
     14 C          -1.0166    1.8536    0.0014 C.ar    1  LIG1        0.0483
     15 C           0.1958    2.5069    0.0015 C.ar    1  LIG1        0.0486
     16 C           0.0263    3.9290    0.0017 C.ar    1  LIG1        0.0216
     17 C          -1.3057    4.2790    0.0026 C.ar    1  LIG1        0.0379
     18 S          -2.2953    2.9311    0.0023 S.2     1  LIG1       -0.0846
     19 N           1.3610    1.9305    0.0013 N.pl3   1  LIG1       -0.3566
     20 H           1.2976    1.0509   -0.4702 H       1  LIG1        0.1424
     21 H           2.0217    2.5145   -0.4703 H       1  LIG1        0.1424
     22 C           1.0235    4.7634    0.0012 C.3     3  LIG3       -0.0681
     23 H           0.7366    5.6625    0.5055 H       2  LIG2        0.0227
     24 H           1.2967    4.9921   -1.0078 H       2  LIG2        0.0227
     25 H           1.8579    4.3223    0.5054 H       2  LIG2        0.0227
     26 C          -1.7708    5.4930    0.0035 C.ar    1  LIG1        0.0484
     27 C          -1.0134    6.6433    0.0038 C.ar    1  LIG1        0.0486
     28 C          -1.8373    7.8147    0.0042 C.ar    1  LIG1        0.0216
     29 C          -3.1759    7.4910    0.0050 C.ar    1  LIG1        0.0379
     30 S          -3.4076    5.8350    0.0046 S.2     1  LIG1       -0.0846
     31 N           0.2858    6.6886    0.0035 N.pl3   1  LIG1       -0.3566
     32 H           0.6473    5.8842   -0.4680 H       1  LIG1        0.1424
     33 H           0.5903    7.5162   -0.4681 H       1  LIG1        0.1424
     34 C          -1.3552    9.0224    0.0038 C.3     4  LIG4       -0.0681
     35 H          -2.0343    9.6777    0.5081 H       3  LIG3        0.0227
     36 H          -1.2231    9.3534   -1.0052 H       3  LIG3        0.0227
     37 H          -0.4115    9.0299    0.5080 H       3  LIG3        0.0227
     38 C          -4.1612    8.3391    0.0062 C.ar    1  LIG1        0.0474
     39 C          -4.0402    9.7108    0.0254 C.ar    1  LIG1        0.0430
     40 C          -5.3212   10.3513    0.0201 C.ar    1  LIG1       -0.0222
     41 C          -6.3459    9.4314   -0.0022 C.ar    1  LIG1       -0.0190
     42 S          -5.7642    7.8638   -0.0165 S.2     1  LIG1       -0.0940
     43 H          -7.6155    9.7107   -0.0114 H       1  LIG1        0.0697
     44 N          -2.9181   10.3669    0.0458 N.pl3   1  LIG1       -0.3569
     45 H          -2.2119    9.8340   -0.4203 H       1  LIG1        0.1424
     46 H          -3.0361   11.2437   -0.4203 H       1  LIG1        0.1424
     47 C          -5.4698   11.6430    0.0347 C.3     1  LIG1       -0.0374
     48 H          -6.3778   11.8919    0.5431 H       1  LIG1        0.0278
     49 H          -5.5119   12.0086   -0.9701 H       1  LIG1        0.0278
     50 H          -4.6419   12.0915    0.5430 H       1  LIG1        0.0278
@<TRIPOS>BOND
     1    12    10    1
     2    24    22    1
     3    36    34    1
     4    49    47    1
     5     9     7    1
     6     8     7    1
     7    21    19    1
     8    20    19    1
     9    33    31    1
    10    32    31    1
    11    46    44    1
    12    45    44    1
    13    42    41   ar
    14    42    38   ar
    15    43    41    1
    16    41    40   ar
    17    10    13    1
    18    10    11    1
    19     6     1    1
    20     7     2    1
    21     1     2   ar
    22     1     5   ar
    23     3     2   ar
    24     3     4   ar
    25     5     4   ar
    26     4    14    1
    27    22    25    1
    28    22    23    1
    29    19    15    1
    30    14    15   ar
    31    14    18   ar
    32    15    16   ar
    33    16    17   ar
    34    18    17   ar
    35    17    26    1
    36    31    27    1
    37    26    27   ar
    38    26    30   ar
    39    34    37    1
    40    34    35    1
    41    27    28   ar
    42    28    29   ar
    43    30    29   ar
    44    29    38    1
    45    38    39   ar
    46    40    39   ar
    47    40    47    1
    48    39    44    1
    49    47    50    1
    50    47    48    1
