@<TRIPOS>MOLECULE
mol_data/noopt/geoms/mol2/5hi5hi-5hi-.out
 38 38 0 0 0
SMALL
GASTEIGER

@<TRIPOS>ATOM
      1 C          -2.0792   -1.7080   -0.0002 C.ar    1  LIG1       -0.0024
      2 C          -0.7020   -1.7080   -0.0002 C.ar    1  LIG1        0.0402
      3 C          -0.1766   -0.3757   -0.0002 C.ar    1  LIG1        0.0210
      4 C          -1.1831    0.5643    0.0006 C.ar    1  LIG1        0.0373
      5 S          -2.6937   -0.1528    0.0006 S.2     1  LIG1       -0.0936
      6 H          -2.8374   -2.7640   -0.0008 H       1  LIG1        0.0712
      7 N           0.0503   -2.7682   -0.0004 N.pl3   1  LIG1       -0.3571
      8 H          -0.4227   -3.5125   -0.4719 H       1  LIG1        0.1424
      9 H           0.9090   -2.5675   -0.4719 H       1  LIG1        0.1424
     10 C           1.0972   -0.1142   -0.0009 C.3     2  LIG2       -0.0681
     11 H           1.2712    0.8133    0.5033 H       1  LIG1        0.0227
     12 H           1.4460   -0.0426   -1.0099 H       1  LIG1        0.0227
     13 H           1.6224   -0.8983    0.5033 H       1  LIG1        0.0227
     14 C          -1.0166    1.8536    0.0014 C.ar    1  LIG1        0.0483
     15 C           0.1958    2.5069    0.0015 C.ar    1  LIG1        0.0486
     16 C           0.0263    3.9290    0.0017 C.ar    1  LIG1        0.0216
     17 C          -1.3057    4.2790    0.0026 C.ar    1  LIG1        0.0379
     18 S          -2.2953    2.9311    0.0023 S.2     1  LIG1       -0.0846
     19 N           1.3610    1.9305    0.0013 N.pl3   1  LIG1       -0.3566
     20 H           1.2976    1.0509   -0.4702 H       1  LIG1        0.1424
     21 H           2.0217    2.5145   -0.4703 H       1  LIG1        0.1424
     22 C           1.0235    4.7634    0.0012 C.3     3  LIG3       -0.0681
     23 H           0.7366    5.6625    0.5055 H       2  LIG2        0.0227
     24 H           1.2967    4.9921   -1.0078 H       2  LIG2        0.0227
     25 H           1.8579    4.3223    0.5054 H       2  LIG2        0.0227
     26 C          -1.7708    5.4930    0.0035 C.ar    1  LIG1        0.0474
     27 C          -1.0136    6.6432    0.0227 C.ar    1  LIG1        0.0430
     28 C          -1.8374    7.8147    0.0172 C.ar    1  LIG1       -0.0222
     29 C          -3.1758    7.4910   -0.0051 C.ar    1  LIG1       -0.0190
     30 S          -3.4074    5.8351   -0.0192 S.2     1  LIG1       -0.0940
     31 H          -4.1610    8.3391   -0.0144 H       1  LIG1        0.0697
     32 N           0.2855    6.6885    0.0432 N.pl3   1  LIG1       -0.3569
     33 H           0.6544    5.8843   -0.4229 H       1  LIG1        0.1424
     34 H           0.5976    7.5163   -0.4229 H       1  LIG1        0.1424
     35 C          -1.3554    9.0223    0.0317 C.3     1  LIG1       -0.0374
     36 H          -2.0366    9.6722    0.5401 H       1  LIG1        0.0278
     37 H          -1.2191    9.3640   -0.9731 H       1  LIG1        0.0278
     38 H          -0.4138    9.0244    0.5400 H       1  LIG1        0.0278
@<TRIPOS>BOND
     1    12    10    1
     2    24    22    1
     3    37    35    1
     4     9     7    1
     5     8     7    1
     6    21    19    1
     7    20    19    1
     8    34    32    1
     9    33    32    1
    10    30    29   ar
    11    30    26   ar
    12    31    29    1
    13    29    28   ar
    14    10    13    1
    15    10    11    1
    16     6     1    1
    17     7     2    1
    18     1     2   ar
    19     1     5   ar
    20     2     3   ar
    21     3     4   ar
    22     4     5   ar
    23     4    14    1
    24    22    25    1
    25    22    23    1
    26    19    15    1
    27    14    15   ar
    28    14    18   ar
    29    15    16   ar
    30    16    17   ar
    31    18    17   ar
    32    17    26    1
    33    26    27   ar
    34    28    27   ar
    35    28    35    1
    36    27    32    1
    37    35    38    1
    38    35    36    1
