@<TRIPOS>MOLECULE
mol_data/noopt/geoms/mol2/5hi5hi5hi5hi.out
 50 50 0 0 0
SMALL
GASTEIGER

@<TRIPOS>ATOM
      1 C          -2.0792   -1.7080   -0.0002 C.ar    1  LIG1       -0.0024
      2 C          -0.7020   -1.7080   -0.0002 C.ar    1  LIG1        0.0402
      3 C          -0.1766   -0.3757   -0.0002 C.ar    1  LIG1        0.0210
      4 C          -1.1831    0.5643    0.0006 C.ar    1  LIG1        0.0373
      5 S          -2.6937   -0.1528    0.0006 S.2     1  LIG1       -0.0936
      6 H          -2.8374   -2.7640   -0.0008 H       1  LIG1        0.0712
      7 N           0.0503   -2.7682   -0.0004 N.pl3   1  LIG1       -0.3571
      8 H          -0.4227   -3.5125   -0.4719 H       1  LIG1        0.1424
      9 H           0.9090   -2.5675   -0.4719 H       1  LIG1        0.1424
     10 C           1.0972   -0.1142   -0.0009 C.3     2  LIG2       -0.0681
     11 H           1.2712    0.8133    0.5033 H       1  LIG1        0.0227
     12 H           1.4460   -0.0426   -1.0099 H       1  LIG1        0.0227
     13 H           1.6224   -0.8983    0.5033 H       1  LIG1        0.0227
     14 C          -1.0166    1.8536    0.0014 C.ar    1  LIG1        0.0483
     15 C           0.1956    2.5069    0.0205 C.ar    1  LIG1        0.0486
     16 C           0.0262    3.9290    0.0147 C.ar    1  LIG1        0.0216
     17 C          -1.3056    4.2790   -0.0075 C.ar    1  LIG1        0.0379
     18 S          -2.2951    2.9311   -0.0215 S.2     1  LIG1       -0.0846
     19 N           1.3607    1.9305    0.0410 N.pl3   1  LIG1       -0.3566
     20 H           1.3040    1.0476   -0.4251 H       1  LIG1        0.1424
     21 H           2.0281    2.5112   -0.4251 H       1  LIG1        0.1424
     22 C           1.0233    4.7634    0.0291 C.3     3  LIG3       -0.0681
     23 H           0.7319    5.6588    0.5375 H       2  LIG2        0.0227
     24 H           1.3054    4.9995   -0.9757 H       2  LIG2        0.0227
     25 H           1.8532    4.3187    0.5374 H       2  LIG2        0.0227
     26 C          -1.7706    5.4930   -0.0170 C.ar    1  LIG1        0.0484
     27 C          -1.0132    6.6432   -0.0232 C.ar    1  LIG1        0.0486
     28 C          -1.8369    7.8147   -0.0340 C.ar    1  LIG1        0.0216
     29 C          -3.1756    7.4910   -0.0345 C.ar    1  LIG1        0.0379
     30 S          -3.4074    5.8350   -0.0232 S.2     1  LIG1       -0.0846
     31 N           0.2861    6.6885   -0.0202 N.pl3   1  LIG1       -0.3566
     32 H           0.6487    5.8841   -0.4908 H       1  LIG1        0.1424
     33 H           0.5919    7.5161   -0.4908 H       1  LIG1        0.1424
     34 C          -1.3548    9.0223   -0.0421 C.3     4  LIG4       -0.0681
     35 H          -2.0327    9.6804    0.4601 H       3  LIG3        0.0227
     36 H          -1.2249    9.3477   -1.0531 H       3  LIG3        0.0227
     37 H          -0.4100    9.0324    0.4601 H       3  LIG3        0.0227
     38 C          -4.1608    8.3391   -0.0426 C.ar    1  LIG1        0.0474
     39 C          -4.0399    9.7109   -0.0290 C.ar    1  LIG1        0.0430
     40 C          -5.3207   10.3514   -0.0442 C.ar    1  LIG1       -0.0222
     41 C          -6.3454    9.4315   -0.0677 C.ar    1  LIG1       -0.0190
     42 S          -5.7637    7.8638   -0.0716 S.2     1  LIG1       -0.0940
     43 H          -7.6149    9.7107   -0.0849 H       1  LIG1        0.0697
     44 N          -2.9178   10.3671   -0.0056 N.pl3   1  LIG1       -0.3569
     45 H          -2.2107    9.8347   -0.4709 H       1  LIG1        0.1424
     46 H          -3.0350   11.2444   -0.4709 H       1  LIG1        0.1424
     47 C          -5.4693   11.6432   -0.0363 C.3     1  LIG1       -0.0374
     48 H          -6.3776   11.8947    0.4703 H       1  LIG1        0.0278
     49 H          -5.5108   12.0036   -1.0430 H       1  LIG1        0.0278
     50 H          -4.6417   12.0943    0.4702 H       1  LIG1        0.0278
@<TRIPOS>BOND
     1    36    34    1
     2    49    47    1
     3    12    10    1
     4    24    22    1
     5    33    31    1
     6    32    31    1
     7     9     7    1
     8     8     7    1
     9    46    44    1
    10    45    44    1
    11    21    19    1
    12    20    19    1
    13    43    41    1
    14    42    41   ar
    15    42    38   ar
    16    41    40   ar
    17    40    47    1
    18    40    39   ar
    19    38    29    1
    20    38    39   ar
    21    34    37    1
    22    34    35    1
    23    47    50    1
    24    47    48    1
    25    29    28   ar
    26    29    30   ar
    27    28    27   ar
    28    39    44    1
    29    27    31    1
    30    27    26   ar
    31    30    26   ar
    32    18    17   ar
    33    18    14   ar
    34    26    17    1
    35    17    16   ar
    36    10    13    1
    37    10    11    1
    38     6     1    1
    39     7     2    1
    40     1     2   ar
    41     1     5   ar
    42     2     3   ar
    43     3     4   ar
    44     4     5   ar
    45     4    14    1
    46    14    15   ar
    47    16    15   ar
    48    15    19    1
    49    22    25    1
    50    22    23    1
