@<TRIPOS>MOLECULE
mol_data/noopt/geoms/mol2/5hi5hi5hi-5hi.out
 50 50 0 0 0
SMALL
GASTEIGER

@<TRIPOS>ATOM
      1 C          -2.0792   -1.7080   -0.0002 C.ar    1  LIG1       -0.0024
      2 C          -0.7020   -1.7080   -0.0002 C.ar    1  LIG1        0.0402
      3 C          -0.1766   -0.3757   -0.0002 C.ar    1  LIG1        0.0210
      4 C          -1.1831    0.5643    0.0006 C.ar    1  LIG1        0.0373
      5 S          -2.6937   -0.1528    0.0006 S.2     1  LIG1       -0.0936
      6 H          -2.8374   -2.7640   -0.0008 H       1  LIG1        0.0712
      7 N           0.0503   -2.7682   -0.0004 N.pl3   1  LIG1       -0.3571
      8 H          -0.4227   -3.5125   -0.4719 H       1  LIG1        0.1424
      9 H           0.9090   -2.5675   -0.4719 H       1  LIG1        0.1424
     10 C           1.0972   -0.1142   -0.0009 C.3     2  LIG2       -0.0681
     11 H           1.2712    0.8133    0.5033 H       1  LIG1        0.0227
     12 H           1.4460   -0.0426   -1.0099 H       1  LIG1        0.0227
     13 H           1.6224   -0.8983    0.5033 H       1  LIG1        0.0227
     14 C          -1.0166    1.8536    0.0014 C.ar    1  LIG1        0.0483
     15 C           0.1956    2.5069    0.0205 C.ar    1  LIG1        0.0486
     16 C           0.0262    3.9290    0.0147 C.ar    1  LIG1        0.0216
     17 C          -1.3056    4.2790   -0.0075 C.ar    1  LIG1        0.0379
     18 S          -2.2951    2.9311   -0.0215 S.2     1  LIG1       -0.0846
     19 N           1.3607    1.9305    0.0410 N.pl3   1  LIG1       -0.3566
     20 H           1.3040    1.0476   -0.4251 H       1  LIG1        0.1424
     21 H           2.0281    2.5112   -0.4251 H       1  LIG1        0.1424
     22 C           1.0233    4.7634    0.0291 C.3     3  LIG3       -0.0681
     23 H           0.7319    5.6588    0.5375 H       2  LIG2        0.0227
     24 H           1.3054    4.9995   -0.9757 H       2  LIG2        0.0227
     25 H           1.8532    4.3187    0.5374 H       2  LIG2        0.0227
     26 C          -1.7706    5.4930   -0.0170 C.ar    1  LIG1        0.0484
     27 C          -1.0134    6.6433   -0.0043 C.ar    1  LIG1        0.0486
     28 C          -1.8371    7.8147   -0.0210 C.ar    1  LIG1        0.0216
     29 C          -3.1754    7.4910   -0.0446 C.ar    1  LIG1        0.0379
     30 S          -3.4072    5.8350   -0.0470 S.2     1  LIG1       -0.0846
     31 N           0.2856    6.6886    0.0196 N.pl3   1  LIG1       -0.3566
     32 H           0.6558    5.8845   -0.4456 H       1  LIG1        0.1424
     33 H           0.5989    7.5165   -0.4457 H       1  LIG1        0.1424
     34 C          -1.3550    9.0224   -0.0141 C.3     4  LIG4       -0.0681
     35 H          -2.0352    9.6750    0.4922 H       3  LIG3        0.0227
     36 H          -1.2209    9.3586   -1.0211 H       3  LIG3        0.0227
     37 H          -0.4124    9.0273    0.4921 H       3  LIG3        0.0227
     38 C          -4.1606    8.3390   -0.0631 C.ar    1  LIG1        0.0474
     39 C          -4.0397    9.7109   -0.0560 C.ar    1  LIG1        0.0430
     40 C          -5.3204   10.3513   -0.0823 C.ar    1  LIG1       -0.0222
     41 C          -6.3449    9.4313   -0.1072 C.ar    1  LIG1       -0.0190
     42 S          -5.7633    7.8636   -0.0994 S.2     1  LIG1       -0.0940
     43 H          -7.6143    9.7105   -0.1337 H       1  LIG1        0.0697
     44 N          -2.9178   10.3671   -0.0292 N.pl3   1  LIG1       -0.3569
     45 H          -2.2095    9.8355   -0.4936 H       1  LIG1        0.1424
     46 H          -3.0340   11.2451   -0.4937 H       1  LIG1        0.1424
     47 C          -5.4690   11.6431   -0.0821 C.3     1  LIG1       -0.0374
     48 H          -6.3776   11.8976    0.4224 H       1  LIG1        0.0278
     49 H          -5.5098   11.9976   -1.0909 H       1  LIG1        0.0278
     50 H          -4.6417   12.0972    0.4223 H       1  LIG1        0.0278
@<TRIPOS>BOND
     1    49    47    1
     2    36    34    1
     3    12    10    1
     4    24    22    1
     5    46    44    1
     6    45    44    1
     7     9     7    1
     8     8     7    1
     9    33    31    1
    10    32    31    1
    11    21    19    1
    12    20    19    1
    13    43    41    1
    14    41    42   ar
    15    41    40   ar
    16    42    38   ar
    17    40    47    1
    18    40    39   ar
    19    47    50    1
    20    47    48    1
    21    38    39   ar
    22    38    29    1
    23    39    44    1
    24    30    29   ar
    25    30    26   ar
    26    29    28   ar
    27    18    17   ar
    28    18    14   ar
    29    28    27   ar
    30    26    17    1
    31    26    27   ar
    32    34    37    1
    33    34    35    1
    34    17    16   ar
    35    27    31    1
    36    10    13    1
    37    10    11    1
    38     6     1    1
    39     7     2    1
    40     1     2   ar
    41     1     5   ar
    42     2     3   ar
    43     3     4   ar
    44     4     5   ar
    45     4    14    1
    46    14    15   ar
    47    16    15   ar
    48    15    19    1
    49    22    25    1
    50    22    23    1
