@<TRIPOS>MOLECULE
mol_data/noopt/geoms/mol2/5hi5hi.out
 26 26 0 0 0
SMALL
GASTEIGER

@<TRIPOS>ATOM
      1 C          -2.0792   -1.7080   -0.0002 C.ar    1  LIG1       -0.0024
      2 C          -0.7020   -1.7080   -0.0002 C.ar    1  LIG1        0.0402
      3 C          -0.1766   -0.3757   -0.0002 C.ar    1  LIG1        0.0210
      4 C          -1.1831    0.5643    0.0006 C.ar    1  LIG1        0.0373
      5 S          -2.6937   -0.1528    0.0006 S.2     1  LIG1       -0.0936
      6 H          -2.8374   -2.7640   -0.0008 H       1  LIG1        0.0712
      7 N           0.0503   -2.7682   -0.0004 N.pl3   1  LIG1       -0.3571
      8 H          -0.4227   -3.5125   -0.4719 H       1  LIG1        0.1424
      9 H           0.9090   -2.5675   -0.4719 H       1  LIG1        0.1424
     10 C           1.0972   -0.1142   -0.0009 C.3     2  LIG2       -0.0681
     11 H           1.2712    0.8133    0.5033 H       1  LIG1        0.0227
     12 H           1.4460   -0.0426   -1.0099 H       1  LIG1        0.0227
     13 H           1.6224   -0.8983    0.5033 H       1  LIG1        0.0227
     14 C          -1.0166    1.8536    0.0014 C.ar    1  LIG1        0.0474
     15 C           0.1956    2.5069    0.0205 C.ar    1  LIG1        0.0430
     16 C           0.0262    3.9290    0.0147 C.ar    1  LIG1       -0.0222
     17 C          -1.3056    4.2790   -0.0075 C.ar    1  LIG1       -0.0190
     18 S          -2.2951    2.9311   -0.0215 S.2     1  LIG1       -0.0940
     19 H          -1.7706    5.4930   -0.0170 H       1  LIG1        0.0697
     20 N           1.3607    1.9305    0.0410 N.pl3   1  LIG1       -0.3569
     21 H           1.3040    1.0476   -0.4251 H       1  LIG1        0.1424
     22 H           2.0281    2.5112   -0.4251 H       1  LIG1        0.1424
     23 C           1.0233    4.7634    0.0291 C.3     1  LIG1       -0.0374
     24 H           0.7319    5.6588    0.5375 H       1  LIG1        0.0278
     25 H           1.3054    4.9995   -0.9757 H       1  LIG1        0.0278
     26 H           1.8532    4.3187    0.5374 H       1  LIG1        0.0278
@<TRIPOS>BOND
     1    12    10    1
     2    25    23    1
     3     9     7    1
     4     8     7    1
     5    22    20    1
     6    21    20    1
     7    18    17   ar
     8    18    14   ar
     9    19    17    1
    10    17    16   ar
    11    10    13    1
    12    10    11    1
    13     6     1    1
    14     7     2    1
    15     1     2   ar
    16     1     5   ar
    17     3     2   ar
    18     3     4   ar
    19     5     4   ar
    20     4    14    1
    21    14    15   ar
    22    16    15   ar
    23    16    23    1
    24    15    20    1
    25    23    26    1
    26    23    24    1
