@<TRIPOS>MOLECULE
mol_data/noopt/geoms/mol2/5hl5hl-.out
 28 28 0 0 0
SMALL
GASTEIGER

@<TRIPOS>ATOM
      1 C          -2.0792   -1.7080   -0.0002 C.ar    1  LIG1        0.0008
      2 C          -0.7020   -1.7080   -0.0002 C.ar    1  LIG1        0.0796
      3 C          -0.1766   -0.3757   -0.0002 C.ar    1  LIG1        0.2147
      4 C          -1.1831    0.5643    0.0006 C.ar    1  LIG1        0.0763
      5 S          -2.6937   -0.1528    0.0006 S.2     1  LIG1       -0.0903
      6 H          -2.8374   -2.7640   -0.0008 H       1  LIG1        0.0713
      7 N           0.0503   -2.7682   -0.0004 N.pl3   1  LIG1       -0.3546
      8 H          -0.4227   -3.5125   -0.4719 H       1  LIG1        0.1424
      9 H           0.9090   -2.5675   -0.4719 H       1  LIG1        0.1424
     10 O           1.0969   -0.1143   -0.0009 O.3     1  LIG1       -0.2847
     11 C           1.8355   -1.3388   -0.0012 C.3     2  LIG2       -0.0681
     12 H           2.8835   -1.1232   -0.0020 H       1  LIG1        0.0227
     13 H           1.5884   -1.9046    0.8727 H       1  LIG1        0.0227
     14 H           1.5872   -1.9049   -0.8746 H       1  LIG1        0.0227
     15 C          -1.0166    1.8536    0.0014 C.ar    1  LIG1        0.0539
     16 C           0.1958    2.5069    0.0015 C.ar    1  LIG1        0.0824
     17 C           0.0263    3.9290    0.0017 C.ar    1  LIG1        0.1482
     18 C          -1.3057    4.2790    0.0026 C.ar    1  LIG1        0.0199
     19 S          -2.2953    2.9311    0.0023 S.2     1  LIG1       -0.0904
     20 H          -1.7708    5.4930    0.0035 H       1  LIG1        0.0731
     21 N           1.3610    1.9305    0.0013 N.pl3   1  LIG1       -0.3542
     22 H           1.2976    1.0509   -0.4702 H       1  LIG1        0.1425
     23 H           2.0217    2.5145   -0.4703 H       1  LIG1        0.1425
     24 O           1.0233    4.7633    0.0012 O.3     1  LIG1       -0.4927
     25 C           2.2544    4.0357    0.0009 C.3     1  LIG1        0.0789
     26 H           3.0747    4.7226    0.0003 H       1  LIG1        0.0660
     27 H           2.3052    3.4203    0.8748 H       1  LIG1        0.0660
     28 H           2.3044    3.4196   -0.8725 H       1  LIG1        0.0660
@<TRIPOS>BOND
     1    14    11    1
     2    28    25    1
     3     9     7    1
     4     8     7    1
     5    23    21    1
     6    22    21    1
     7    12    11    1
     8    11    13    1
     9    10     3    1
    10     6     1    1
    11     7     2    1
    12     1     2   ar
    13     1     5   ar
    14     3     2   ar
    15     3     4   ar
    16    26    25    1
    17     5     4   ar
    18     4    15    1
    19    25    24    1
    20    25    27    1
    21    24    17    1
    22    21    16    1
    23    15    16   ar
    24    15    19   ar
    25    16    17   ar
    26    17    18   ar
    27    19    18   ar
    28    18    20    1
