@<TRIPOS>MOLECULE
mol_data/noopt/geoms/mol2/5hl5hl5hl5hl-.out
 54 54 0 0 0
SMALL
GASTEIGER

@<TRIPOS>ATOM
      1 C          -2.0792   -1.7080   -0.0002 C.ar    1  LIG1        0.0008
      2 C          -0.7020   -1.7080   -0.0002 C.ar    1  LIG1        0.0796
      3 C          -0.1766   -0.3757   -0.0002 C.ar    1  LIG1        0.2147
      4 C          -1.1831    0.5643    0.0006 C.ar    1  LIG1        0.0763
      5 S          -2.6937   -0.1528    0.0006 S.2     1  LIG1       -0.0903
      6 H          -2.8374   -2.7640   -0.0008 H       1  LIG1        0.0713
      7 N           0.0503   -2.7682   -0.0004 N.pl3   1  LIG1       -0.3546
      8 H          -0.4227   -3.5125   -0.4719 H       1  LIG1        0.1424
      9 H           0.9090   -2.5675   -0.4719 H       1  LIG1        0.1424
     10 O           1.0969   -0.1143   -0.0009 O.3     1  LIG1       -0.2847
     11 C           1.8355   -1.3388   -0.0012 C.3     2  LIG2       -0.0681
     12 H           2.8835   -1.1232   -0.0020 H       1  LIG1        0.0227
     13 H           1.5884   -1.9046    0.8727 H       1  LIG1        0.0227
     14 H           1.5872   -1.9049   -0.8746 H       1  LIG1        0.0227
     15 C          -1.0166    1.8536    0.0014 C.ar    1  LIG1        0.0547
     16 C           0.1956    2.5069    0.0205 C.ar    1  LIG1        0.0881
     17 C           0.0262    3.9290    0.0147 C.ar    1  LIG1        0.2153
     18 C          -1.3056    4.2790   -0.0075 C.ar    1  LIG1        0.0769
     19 S          -2.2951    2.9311   -0.0215 S.2     1  LIG1       -0.0812
     20 N           1.3607    1.9305    0.0410 N.pl3   1  LIG1       -0.3541
     21 H           1.3040    1.0476   -0.4251 H       1  LIG1        0.1425
     22 H           2.0281    2.5112   -0.4251 H       1  LIG1        0.1425
     23 O           1.0231    4.7633    0.0291 O.3     1  LIG1       -0.2847
     24 C           2.2542    4.0357    0.0343 C.3     3  LIG3       -0.0681
     25 H           3.0745    4.7227    0.0460 H       2  LIG2        0.0227
     26 H           2.2974    3.4139    0.9041 H       2  LIG2        0.0227
     27 H           2.3120    3.4261   -0.8431 H       2  LIG2        0.0227
     28 C          -1.7706    5.4930   -0.0170 C.ar    1  LIG1        0.0547
     29 C          -1.0132    6.6432   -0.0232 C.ar    1  LIG1        0.0881
     30 C          -1.8369    7.8147   -0.0340 C.ar    1  LIG1        0.2153
     31 C          -3.1756    7.4910   -0.0345 C.ar    1  LIG1        0.0769
     32 S          -3.4074    5.8350   -0.0232 S.2     1  LIG1       -0.0812
     33 N           0.2861    6.6885   -0.0202 N.pl3   1  LIG1       -0.3541
     34 H           0.6487    5.8841   -0.4908 H       1  LIG1        0.1425
     35 H           0.5919    7.5161   -0.4908 H       1  LIG1        0.1425
     36 O          -1.3549    9.0220   -0.0421 O.3     1  LIG1       -0.2847
     37 C           0.0740    8.9654   -0.0451 C.3     4  LIG4       -0.0681
     38 H           0.4703    9.9593   -0.0519 H       3  LIG3        0.0227
     39 H           0.4125    8.4525    0.8309 H       3  LIG3        0.0227
     40 H           0.4084    8.4421   -0.9164 H       3  LIG3        0.0227
     41 C          -4.1608    8.3391   -0.0426 C.ar    1  LIG1        0.0539
     42 C          -4.0397    9.7110   -0.0479 C.ar    1  LIG1        0.0824
     43 C          -5.3206   10.3514   -0.0572 C.ar    1  LIG1        0.1482
     44 C          -6.3455    9.4315   -0.0576 C.ar    1  LIG1        0.0199
     45 S          -5.7640    7.8637   -0.0478 S.2     1  LIG1       -0.0904
     46 H          -7.6151    9.7107   -0.0644 H       1  LIG1        0.0731
     47 N          -2.9174   10.3672   -0.0453 N.pl3   1  LIG1       -0.3542
     48 H          -2.2168    9.8310   -0.5161 H       1  LIG1        0.1425
     49 H          -3.0410   11.2407   -0.5161 H       1  LIG1        0.1425
     50 O          -5.4690   11.6430   -0.0642 O.3     1  LIG1       -0.4927
     51 C          -4.1843   12.2710   -0.0669 C.3     1  LIG1        0.0789
     52 H          -4.3069   13.3339   -0.0729 H       1  LIG1        0.0660
     53 H          -3.6429   11.9794    0.8088 H       1  LIG1        0.0660
     54 H          -3.6418   11.9697   -0.9385 H       1  LIG1        0.0660
@<TRIPOS>BOND
     1    54    51    1
     2    40    37    1
     3    14    11    1
     4    27    24    1
     5    49    47    1
     6    48    47    1
     7    35    33    1
     8    34    33    1
     9     9     7    1
    10     8     7    1
    11    22    20    1
    12    21    20    1
    13    52    51    1
    14    51    50    1
    15    51    53    1
    16    46    44    1
    17    50    43    1
    18    44    43   ar
    19    44    45   ar
    20    43    42   ar
    21    38    37    1
    22    42    47    1
    23    42    41   ar
    24    45    41   ar
    25    37    39    1
    26    41    31    1
    27    36    30    1
    28    31    30   ar
    29    31    32   ar
    30    30    29   ar
    31    29    33    1
    32    29    28   ar
    33    32    28   ar
    34    19    18   ar
    35    19    15   ar
    36    28    18    1
    37    18    17   ar
    38    12    11    1
    39    11    13    1
    40    10     3    1
    41     6     1    1
    42     7     2    1
    43     1     2   ar
    44     1     5   ar
    45     2     3   ar
    46     3     4   ar
    47     5     4   ar
    48     4    15    1
    49    15    16   ar
    50    17    16   ar
    51    17    23    1
    52    16    20    1
    53    24    25    1
    54    24    26    1
