@<TRIPOS>MOLECULE
mol_data/noopt/geoms/mol2/5hl5hl-5hl5hl-.out
 54 54 0 0 0
SMALL
GASTEIGER

@<TRIPOS>ATOM
      1 C          -2.0792   -1.7080   -0.0002 C.ar    1  LIG1        0.0008
      2 C          -0.7020   -1.7080   -0.0002 C.ar    1  LIG1        0.0796
      3 C          -0.1766   -0.3757   -0.0002 C.ar    1  LIG1        0.2147
      4 C          -1.1831    0.5643    0.0006 C.ar    1  LIG1        0.0763
      5 S          -2.6937   -0.1528    0.0006 S.2     1  LIG1       -0.0903
      6 H          -2.8374   -2.7640   -0.0008 H       1  LIG1        0.0713
      7 N           0.0503   -2.7682   -0.0004 N.pl3   1  LIG1       -0.3546
      8 H          -0.4227   -3.5125   -0.4719 H       1  LIG1        0.1424
      9 H           0.9090   -2.5675   -0.4719 H       1  LIG1        0.1424
     10 O           1.0969   -0.1143   -0.0009 O.3     1  LIG1       -0.2847
     11 C           1.8355   -1.3388   -0.0012 C.3     2  LIG2       -0.0681
     12 H           2.8835   -1.1232   -0.0020 H       1  LIG1        0.0227
     13 H           1.5884   -1.9046    0.8727 H       1  LIG1        0.0227
     14 H           1.5872   -1.9049   -0.8746 H       1  LIG1        0.0227
     15 C          -1.0166    1.8536    0.0014 C.ar    1  LIG1        0.0547
     16 C           0.1958    2.5069    0.0015 C.ar    1  LIG1        0.0881
     17 C           0.0263    3.9290    0.0017 C.ar    1  LIG1        0.2153
     18 C          -1.3057    4.2790    0.0026 C.ar    1  LIG1        0.0769
     19 S          -2.2953    2.9311    0.0023 S.2     1  LIG1       -0.0812
     20 N           1.3610    1.9305    0.0013 N.pl3   1  LIG1       -0.3541
     21 H           1.2976    1.0509   -0.4702 H       1  LIG1        0.1425
     22 H           2.0217    2.5145   -0.4703 H       1  LIG1        0.1425
     23 O           1.0233    4.7633    0.0012 O.3     1  LIG1       -0.2847
     24 C           2.2544    4.0357    0.0009 C.3     3  LIG3       -0.0681
     25 H           3.0747    4.7226    0.0003 H       2  LIG2        0.0227
     26 H           2.3052    3.4203    0.8748 H       2  LIG2        0.0227
     27 H           2.3044    3.4196   -0.8725 H       2  LIG2        0.0227
     28 C          -1.7708    5.4930    0.0035 C.ar    1  LIG1        0.0547
     29 C          -1.0134    6.6433    0.0038 C.ar    1  LIG1        0.0881
     30 C          -1.8373    7.8147    0.0042 C.ar    1  LIG1        0.2153
     31 C          -3.1759    7.4910    0.0050 C.ar    1  LIG1        0.0769
     32 S          -3.4076    5.8350    0.0046 S.2     1  LIG1       -0.0812
     33 N           0.2858    6.6886    0.0035 N.pl3   1  LIG1       -0.3541
     34 H           0.6473    5.8842   -0.4680 H       1  LIG1        0.1425
     35 H           0.5903    7.5162   -0.4681 H       1  LIG1        0.1425
     36 O          -1.3553    9.0221    0.0038 O.3     1  LIG1       -0.2847
     37 C           0.0736    8.9657    0.0035 C.3     4  LIG4       -0.0681
     38 H           0.4699    9.9596    0.0030 H       3  LIG3        0.0227
     39 H           0.4102    8.4479    0.8774 H       3  LIG3        0.0227
     40 H           0.4099    8.4472   -0.8699 H       3  LIG3        0.0227
     41 C          -4.1612    8.3391    0.0062 C.ar    1  LIG1        0.0539
     42 C          -4.0401    9.7109    0.0065 C.ar    1  LIG1        0.0824
     43 C          -5.3211   10.3514    0.0071 C.ar    1  LIG1        0.1482
     44 C          -6.3459    9.4314    0.0079 C.ar    1  LIG1        0.0199
     45 S          -5.7643    7.8636    0.0073 S.2     1  LIG1       -0.0904
     46 H          -7.6156    9.7105    0.0092 H       1  LIG1        0.0731
     47 N          -2.9179   10.3672    0.0061 N.pl3   1  LIG1       -0.3542
     48 H          -2.2181    9.8305   -0.4654 H       1  LIG1        0.1425
     49 H          -3.0424   11.2402   -0.4654 H       1  LIG1        0.1425
     50 O          -5.4696   11.6429    0.0067 O.3     1  LIG1       -0.4927
     51 C          -4.1849   12.2710    0.0066 C.3     1  LIG1        0.0789
     52 H          -4.3076   13.3340    0.0061 H       1  LIG1        0.0660
     53 H          -3.6430   11.9749    0.8804 H       1  LIG1        0.0660
     54 H          -3.6429   11.9742   -0.8669 H       1  LIG1        0.0660
@<TRIPOS>BOND
     1    14    11    1
     2    27    24    1
     3    40    37    1
     4    54    51    1
     5     9     7    1
     6     8     7    1
     7    22    20    1
     8    21    20    1
     9    35    33    1
    10    34    33    1
    11    49    47    1
    12    48    47    1
    13    12    11    1
    14    11    13    1
    15    10     3    1
    16     6     1    1
    17     7     2    1
    18     1     2   ar
    19     1     5   ar
    20     2     3   ar
    21     3     4   ar
    22    25    24    1
    23     4     5   ar
    24     4    15    1
    25    24    26    1
    26    23    17    1
    27    20    16    1
    28    15    16   ar
    29    15    19   ar
    30    16    17   ar
    31    17    18   ar
    32    19    18   ar
    33    18    28    1
    34    38    37    1
    35    33    29    1
    36    37    39    1
    37    28    29   ar
    38    28    32   ar
    39    36    30    1
    40    29    30   ar
    41    30    31   ar
    42    32    31   ar
    43    31    41    1
    44    47    42    1
    45    52    51    1
    46    41    42   ar
    47    41    45   ar
    48    42    43   ar
    49    51    50    1
    50    51    53    1
    51    50    43    1
    52    43    44   ar
    53    45    44   ar
    54    44    46    1
