@<TRIPOS>MOLECULE
mol_data/noopt/geoms/mol2/5hl5hl5hl-.out
 41 41 0 0 0
SMALL
GASTEIGER

@<TRIPOS>ATOM
      1 C          -2.0792   -1.7080   -0.0002 C.ar    1  LIG1        0.0008
      2 C          -0.7020   -1.7080   -0.0002 C.ar    1  LIG1        0.0796
      3 C          -0.1766   -0.3757   -0.0002 C.ar    1  LIG1        0.2147
      4 C          -1.1831    0.5643    0.0006 C.ar    1  LIG1        0.0763
      5 S          -2.6937   -0.1528    0.0006 S.2     1  LIG1       -0.0903
      6 H          -2.8374   -2.7640   -0.0008 H       1  LIG1        0.0713
      7 N           0.0503   -2.7682   -0.0004 N.pl3   1  LIG1       -0.3546
      8 H          -0.4227   -3.5125   -0.4719 H       1  LIG1        0.1424
      9 H           0.9090   -2.5675   -0.4719 H       1  LIG1        0.1424
     10 O           1.0969   -0.1143   -0.0009 O.3     1  LIG1       -0.2847
     11 C           1.8355   -1.3388   -0.0012 C.3     2  LIG2       -0.0681
     12 H           2.8835   -1.1232   -0.0020 H       1  LIG1        0.0227
     13 H           1.5884   -1.9046    0.8727 H       1  LIG1        0.0227
     14 H           1.5872   -1.9049   -0.8746 H       1  LIG1        0.0227
     15 C          -1.0166    1.8536    0.0014 C.ar    1  LIG1        0.0547
     16 C           0.1956    2.5069    0.0205 C.ar    1  LIG1        0.0881
     17 C           0.0262    3.9290    0.0147 C.ar    1  LIG1        0.2153
     18 C          -1.3056    4.2790   -0.0075 C.ar    1  LIG1        0.0769
     19 S          -2.2951    2.9311   -0.0215 S.2     1  LIG1       -0.0812
     20 N           1.3607    1.9305    0.0410 N.pl3   1  LIG1       -0.3541
     21 H           1.3040    1.0476   -0.4251 H       1  LIG1        0.1425
     22 H           2.0281    2.5112   -0.4251 H       1  LIG1        0.1425
     23 O           1.0231    4.7633    0.0291 O.3     1  LIG1       -0.2847
     24 C           2.2542    4.0357    0.0343 C.3     3  LIG3       -0.0681
     25 H           3.0745    4.7227    0.0460 H       2  LIG2        0.0227
     26 H           2.2974    3.4139    0.9041 H       2  LIG2        0.0227
     27 H           2.3120    3.4261   -0.8431 H       2  LIG2        0.0227
     28 C          -1.7706    5.4930   -0.0170 C.ar    1  LIG1        0.0539
     29 C          -1.0134    6.6433   -0.0043 C.ar    1  LIG1        0.0824
     30 C          -1.8371    7.8147   -0.0210 C.ar    1  LIG1        0.1482
     31 C          -3.1754    7.4910   -0.0446 C.ar    1  LIG1        0.0199
     32 S          -3.4072    5.8350   -0.0470 S.2     1  LIG1       -0.0904
     33 H          -4.1606    8.3390   -0.0631 H       1  LIG1        0.0731
     34 N           0.2856    6.6886    0.0196 N.pl3   1  LIG1       -0.3542
     35 H           0.6558    5.8845   -0.4456 H       1  LIG1        0.1425
     36 H           0.5989    7.5165   -0.4457 H       1  LIG1        0.1425
     37 O          -1.3551    9.0221   -0.0141 O.3     1  LIG1       -0.4927
     38 C           0.0737    8.9657   -0.0117 C.3     1  LIG1        0.0789
     39 H           0.4700    9.9596   -0.0062 H       1  LIG1        0.0660
     40 H           0.4086    8.4435    0.8602 H       1  LIG1        0.0660
     41 H           0.4119    8.4518   -0.8871 H       1  LIG1        0.0660
@<TRIPOS>BOND
     1    41    38    1
     2    14    11    1
     3    27    24    1
     4     9     7    1
     5     8     7    1
     6    36    34    1
     7    35    34    1
     8    22    20    1
     9    21    20    1
    10    33    31    1
    11    32    31   ar
    12    32    28   ar
    13    31    30   ar
    14    19    18   ar
    15    19    15   ar
    16    30    37    1
    17    30    29   ar
    18    28    18    1
    19    28    29   ar
    20    37    38    1
    21    38    39    1
    22    38    40    1
    23    18    17   ar
    24    29    34    1
    25    12    11    1
    26    11    13    1
    27    10     3    1
    28     6     1    1
    29     7     2    1
    30     3     2   ar
    31     3     4   ar
    32     2     1   ar
    33     1     5   ar
    34     5     4   ar
    35     4    15    1
    36    15    16   ar
    37    17    16   ar
    38    17    23    1
    39    16    20    1
    40    24    25    1
    41    24    26    1
