@<TRIPOS>MOLECULE
mol_data/noopt/geoms/mol2/5hl5hl-5hl-.out
 41 41 0 0 0
SMALL
GASTEIGER

@<TRIPOS>ATOM
      1 C          -2.0792   -1.7080   -0.0002 C.ar    1  LIG1        0.0008
      2 C          -0.7020   -1.7080   -0.0002 C.ar    1  LIG1        0.0796
      3 C          -0.1766   -0.3757   -0.0002 C.ar    1  LIG1        0.2147
      4 C          -1.1831    0.5643    0.0006 C.ar    1  LIG1        0.0763
      5 S          -2.6937   -0.1528    0.0006 S.2     1  LIG1       -0.0903
      6 H          -2.8374   -2.7640   -0.0008 H       1  LIG1        0.0713
      7 N           0.0503   -2.7682   -0.0004 N.pl3   1  LIG1       -0.3546
      8 H          -0.4227   -3.5125   -0.4719 H       1  LIG1        0.1424
      9 H           0.9090   -2.5675   -0.4719 H       1  LIG1        0.1424
     10 O           1.0969   -0.1143   -0.0009 O.3     1  LIG1       -0.2847
     11 C           1.8355   -1.3388   -0.0012 C.3     2  LIG2       -0.0681
     12 H           2.8835   -1.1232   -0.0020 H       1  LIG1        0.0227
     13 H           1.5884   -1.9046    0.8727 H       1  LIG1        0.0227
     14 H           1.5872   -1.9049   -0.8746 H       1  LIG1        0.0227
     15 C          -1.0166    1.8536    0.0014 C.ar    1  LIG1        0.0547
     16 C           0.1958    2.5069    0.0015 C.ar    1  LIG1        0.0881
     17 C           0.0263    3.9290    0.0017 C.ar    1  LIG1        0.2153
     18 C          -1.3057    4.2790    0.0026 C.ar    1  LIG1        0.0769
     19 S          -2.2953    2.9311    0.0023 S.2     1  LIG1       -0.0812
     20 N           1.3610    1.9305    0.0013 N.pl3   1  LIG1       -0.3541
     21 H           1.2976    1.0509   -0.4702 H       1  LIG1        0.1425
     22 H           2.0217    2.5145   -0.4703 H       1  LIG1        0.1425
     23 O           1.0233    4.7633    0.0012 O.3     1  LIG1       -0.2847
     24 C           2.2544    4.0357    0.0009 C.3     3  LIG3       -0.0681
     25 H           3.0747    4.7226    0.0003 H       2  LIG2        0.0227
     26 H           2.3052    3.4203    0.8748 H       2  LIG2        0.0227
     27 H           2.3044    3.4196   -0.8725 H       2  LIG2        0.0227
     28 C          -1.7708    5.4930    0.0035 C.ar    1  LIG1        0.0539
     29 C          -1.0136    6.6432    0.0227 C.ar    1  LIG1        0.0824
     30 C          -1.8374    7.8147    0.0172 C.ar    1  LIG1        0.1482
     31 C          -3.1758    7.4910   -0.0051 C.ar    1  LIG1        0.0199
     32 S          -3.4074    5.8351   -0.0192 S.2     1  LIG1       -0.0904
     33 H          -4.1610    8.3391   -0.0144 H       1  LIG1        0.0731
     34 N           0.2855    6.6885    0.0432 N.pl3   1  LIG1       -0.3542
     35 H           0.6544    5.8843   -0.4229 H       1  LIG1        0.1425
     36 H           0.5976    7.5163   -0.4229 H       1  LIG1        0.1425
     37 O          -1.3555    9.0221    0.0317 O.3     1  LIG1       -0.4927
     38 C           0.0734    8.9656    0.0369 C.3     1  LIG1        0.0789
     39 H           0.4696    9.9595    0.0487 H       1  LIG1        0.0660
     40 H           0.4064    8.4386    0.9067 H       1  LIG1        0.0660
     41 H           0.4135    8.4565   -0.8405 H       1  LIG1        0.0660
@<TRIPOS>BOND
     1    14    11    1
     2    27    24    1
     3    41    38    1
     4     9     7    1
     5     8     7    1
     6    22    20    1
     7    21    20    1
     8    36    34    1
     9    35    34    1
    10    32    31   ar
    11    32    28   ar
    12    33    31    1
    13    31    30   ar
    14    12    11    1
    15    11    13    1
    16    10     3    1
    17     6     1    1
    18     7     2    1
    19     2     3   ar
    20     2     1   ar
    21     3     4   ar
    22     1     5   ar
    23    25    24    1
    24     4     5   ar
    25     4    15    1
    26    24    26    1
    27    23    17    1
    28    20    16    1
    29    15    16   ar
    30    15    19   ar
    31    16    17   ar
    32    17    18   ar
    33    19    18   ar
    34    18    28    1
    35    28    29   ar
    36    30    29   ar
    37    30    37    1
    38    29    34    1
    39    37    38    1
    40    38    39    1
    41    38    40    1
