@<TRIPOS>MOLECULE
mol_data/noopt/geoms/mol2/5hl5hl-5hl-5hl-.out
 54 54 0 0 0
SMALL
GASTEIGER

@<TRIPOS>ATOM
      1 C          -2.0792   -1.7080   -0.0002 C.ar    1  LIG1        0.0008
      2 C          -0.7020   -1.7080   -0.0002 C.ar    1  LIG1        0.0796
      3 C          -0.1766   -0.3757   -0.0002 C.ar    1  LIG1        0.2147
      4 C          -1.1831    0.5643    0.0006 C.ar    1  LIG1        0.0763
      5 S          -2.6937   -0.1528    0.0006 S.2     1  LIG1       -0.0903
      6 H          -2.8374   -2.7640   -0.0008 H       1  LIG1        0.0713
      7 N           0.0503   -2.7682   -0.0004 N.pl3   1  LIG1       -0.3546
      8 H          -0.4227   -3.5125   -0.4719 H       1  LIG1        0.1424
      9 H           0.9090   -2.5675   -0.4719 H       1  LIG1        0.1424
     10 O           1.0969   -0.1143   -0.0009 O.3     1  LIG1       -0.2847
     11 C           1.8355   -1.3388   -0.0012 C.3     2  LIG2       -0.0681
     12 H           2.8835   -1.1232   -0.0020 H       1  LIG1        0.0227
     13 H           1.5884   -1.9046    0.8727 H       1  LIG1        0.0227
     14 H           1.5872   -1.9049   -0.8746 H       1  LIG1        0.0227
     15 C          -1.0166    1.8536    0.0014 C.ar    1  LIG1        0.0547
     16 C           0.1958    2.5069    0.0015 C.ar    1  LIG1        0.0881
     17 C           0.0263    3.9290    0.0017 C.ar    1  LIG1        0.2153
     18 C          -1.3057    4.2790    0.0026 C.ar    1  LIG1        0.0769
     19 S          -2.2953    2.9311    0.0023 S.2     1  LIG1       -0.0812
     20 N           1.3610    1.9305    0.0013 N.pl3   1  LIG1       -0.3541
     21 H           1.2976    1.0509   -0.4702 H       1  LIG1        0.1425
     22 H           2.0217    2.5145   -0.4703 H       1  LIG1        0.1425
     23 O           1.0233    4.7633    0.0012 O.3     1  LIG1       -0.2847
     24 C           2.2544    4.0357    0.0009 C.3     3  LIG3       -0.0681
     25 H           3.0747    4.7226    0.0003 H       2  LIG2        0.0227
     26 H           2.3052    3.4203    0.8748 H       2  LIG2        0.0227
     27 H           2.3044    3.4196   -0.8725 H       2  LIG2        0.0227
     28 C          -1.7708    5.4930    0.0035 C.ar    1  LIG1        0.0547
     29 C          -1.0136    6.6432    0.0227 C.ar    1  LIG1        0.0881
     30 C          -1.8374    7.8147    0.0172 C.ar    1  LIG1        0.2153
     31 C          -3.1758    7.4910   -0.0051 C.ar    1  LIG1        0.0769
     32 S          -3.4074    5.8351   -0.0192 S.2     1  LIG1       -0.0812
     33 N           0.2855    6.6885    0.0432 N.pl3   1  LIG1       -0.3541
     34 H           0.6544    5.8843   -0.4229 H       1  LIG1        0.1425
     35 H           0.5976    7.5163   -0.4229 H       1  LIG1        0.1425
     36 O          -1.3555    9.0221    0.0317 O.3     1  LIG1       -0.2847
     37 C           0.0734    8.9656    0.0369 C.3     4  LIG4       -0.0681
     38 H           0.4696    9.9595    0.0487 H       3  LIG3        0.0227
     39 H           0.4064    8.4386    0.9067 H       3  LIG3        0.0227
     40 H           0.4135    8.4565   -0.8405 H       3  LIG3        0.0227
     41 C          -4.1610    8.3391   -0.0144 C.ar    1  LIG1        0.0539
     42 C          -4.0399    9.7110   -0.0205 C.ar    1  LIG1        0.0824
     43 C          -5.3208   10.3515   -0.0311 C.ar    1  LIG1        0.1482
     44 C          -6.3457    9.4315   -0.0316 C.ar    1  LIG1        0.0199
     45 S          -5.7642    7.8638   -0.0205 S.2     1  LIG1       -0.0904
     46 H          -7.6153    9.7107   -0.0396 H       1  LIG1        0.0731
     47 N          -2.9176   10.3672   -0.0175 N.pl3   1  LIG1       -0.3542
     48 H          -2.2168    9.8311   -0.4881 H       1  LIG1        0.1425
     49 H          -3.0410   11.2408   -0.4882 H       1  LIG1        0.1425
     50 O          -5.4692   11.6430   -0.0391 O.3     1  LIG1       -0.4927
     51 C          -4.1845   12.2710   -0.0421 C.3     1  LIG1        0.0789
     52 H          -4.3070   13.3340   -0.0488 H       1  LIG1        0.0660
     53 H          -3.6431   11.9800    0.8339 H       1  LIG1        0.0660
     54 H          -3.6419   11.9691   -0.9134 H       1  LIG1        0.0660
@<TRIPOS>BOND
     1    54    51    1
     2    14    11    1
     3    27    24    1
     4    40    37    1
     5    49    47    1
     6    48    47    1
     7     9     7    1
     8     8     7    1
     9    22    20    1
    10    21    20    1
    11    35    33    1
    12    34    33    1
    13    52    51    1
    14    51    50    1
    15    51    53    1
    16    46    44    1
    17    50    43    1
    18    44    43   ar
    19    44    45   ar
    20    43    42   ar
    21    42    47    1
    22    42    41   ar
    23    45    41   ar
    24    32    31   ar
    25    32    28   ar
    26    41    31    1
    27    31    30   ar
    28    12    11    1
    29    11    13    1
    30    10     3    1
    31     6     1    1
    32     7     2    1
    33     1     2   ar
    34     1     5   ar
    35     2     3   ar
    36     3     4   ar
    37    25    24    1
    38     4     5   ar
    39     4    15    1
    40    24    26    1
    41    23    17    1
    42    20    16    1
    43    15    16   ar
    44    15    19   ar
    45    16    17   ar
    46    17    18   ar
    47    19    18   ar
    48    18    28    1
    49    28    29   ar
    50    30    29   ar
    51    30    36    1
    52    29    33    1
    53    37    38    1
    54    37    39    1
