@<TRIPOS>MOLECULE
mol_data/noopt/geoms/mol2/5ia5ia-.out
 22 23 0 0 0
SMALL
GASTEIGER

@<TRIPOS>ATOM
      1 C          -2.0792   -1.7080   -0.0002 C.ar    1  LIG1       -0.0208
      2 C          -0.7020   -1.7080   -0.0002 C.ar    1  LIG1       -0.0428
      3 C          -0.1766   -0.3757   -0.0002 C.ar    1  LIG1       -0.0435
      4 C          -1.1831    0.5643    0.0006 C.ar    1  LIG1        0.0264
      5 S          -2.6937   -0.1528    0.0006 S.2     1  LIG1       -0.0959
      6 H          -2.8374   -2.7640   -0.0008 H       1  LIG1        0.0696
      7 C           0.0505   -2.7685   -0.0004 C.3     1  LIG1       -0.0392
      8 H           0.9694   -2.5538    0.5040 H       1  LIG1        0.0278
      9 H           0.2569   -3.0592   -1.0093 H       1  LIG1        0.0278
     10 H          -0.4556   -3.5650    0.5039 H       1  LIG1        0.0278
     11 H           1.0969   -0.1143   -0.0009 H       1  LIG1        0.0632
     12 C          -1.0166    1.8536    0.0014 C.ar    1  LIG1        0.0288
     13 C           0.1958    2.5069    0.0015 C.ar    1  LIG1       -0.0352
     14 C           0.0263    3.9290    0.0017 C.ar    1  LIG1       -0.0512
     15 C          -1.3057    4.2790    0.0026 C.ar    1  LIG1       -0.0235
     16 S          -2.2953    2.9311    0.0023 S.2     1  LIG1       -0.0959
     17 H          -1.7708    5.4930    0.0035 H       1  LIG1        0.0693
     18 C           1.3613    1.9304    0.0013 C.3     1  LIG1       -0.0386
     19 H           2.0684    2.5552    0.5056 H       1  LIG1        0.0278
     20 H           1.6808    1.7723   -1.0077 H       1  LIG1        0.0278
     21 H           1.2936    0.9891    0.5055 H       1  LIG1        0.0278
     22 H           1.0233    4.7632    0.0012 H       1  LIG1        0.0626
@<TRIPOS>BOND
     1     9     7    1
     2    20    18    1
     3    11     3    1
     4     6     1    1
     5     7     2    1
     6     7    10    1
     7     7     8    1
     8     2     3   ar
     9     2     1   ar
    10     3     4   ar
    11     1     5   ar
    12     4     5   ar
    13     4    12    1
    14    22    14    1
    15    18    13    1
    16    18    21    1
    17    18    19    1
    18    12    13   ar
    19    12    16   ar
    20    13    14   ar
    21    14    15   ar
    22    16    15   ar
    23    15    17    1
