@<TRIPOS>MOLECULE
mol_data/noopt/geoms/mol2/5ia5ia-5ia-5ia.out
 42 45 0 0 0
SMALL
GASTEIGER

@<TRIPOS>ATOM
      1 C          -2.0792   -1.7080   -0.0002 C.ar    1  LIG1       -0.0208
      2 C          -0.7020   -1.7080   -0.0002 C.ar    1  LIG1       -0.0428
      3 C          -0.1766   -0.3757   -0.0002 C.ar    1  LIG1       -0.0435
      4 C          -1.1831    0.5643    0.0006 C.ar    1  LIG1        0.0264
      5 S          -2.6937   -0.1528    0.0006 S.2     1  LIG1       -0.0959
      6 H          -2.8374   -2.7640   -0.0008 H       1  LIG1        0.0696
      7 C           0.0505   -2.7685   -0.0004 C.3     1  LIG1       -0.0392
      8 H           0.9694   -2.5538    0.5040 H       1  LIG1        0.0278
      9 H           0.2569   -3.0592   -1.0093 H       1  LIG1        0.0278
     10 H          -0.4556   -3.5650    0.5039 H       1  LIG1        0.0278
     11 H           1.0969   -0.1143   -0.0009 H       1  LIG1        0.0632
     12 C          -1.0166    1.8536    0.0014 C.ar    1  LIG1        0.0294
     13 C           0.1958    2.5069    0.0015 C.ar    1  LIG1       -0.0346
     14 C           0.0263    3.9290    0.0017 C.ar    1  LIG1       -0.0429
     15 C          -1.3057    4.2790    0.0026 C.ar    1  LIG1        0.0270
     16 S          -2.2953    2.9311    0.0023 S.2     1  LIG1       -0.0869
     17 C           1.3613    1.9304    0.0013 C.3     1  LIG1       -0.0386
     18 H           2.0684    2.5552    0.5056 H       1  LIG1        0.0278
     19 H           1.6808    1.7723   -1.0077 H       1  LIG1        0.0278
     20 H           1.2936    0.9891    0.5055 H       1  LIG1        0.0278
     21 H           1.0233    4.7632    0.0012 H       1  LIG1        0.0632
     22 C          -1.7708    5.4930    0.0035 C.ar    1  LIG1        0.0294
     23 C          -1.0136    6.6432    0.0227 C.ar    1  LIG1       -0.0346
     24 C          -1.8374    7.8147    0.0172 C.ar    1  LIG1       -0.0429
     25 C          -3.1758    7.4910   -0.0051 C.ar    1  LIG1        0.0270
     26 S          -3.4074    5.8351   -0.0192 S.2     1  LIG1       -0.0869
     27 C           0.2858    6.6885    0.0432 C.3     1  LIG1       -0.0386
     28 H           0.6039    7.5737    0.5532 H       1  LIG1        0.0278
     29 H           0.6581    6.7015   -0.9599 H       1  LIG1        0.0278
     30 H           0.6646    5.8274    0.5531 H       1  LIG1        0.0278
     31 H          -1.3555    9.0220    0.0317 H       1  LIG1        0.0632
     32 C          -4.1610    8.3391   -0.0144 C.ar    1  LIG1        0.0288
     33 C          -4.0401    9.7110   -0.0016 C.ar    1  LIG1       -0.0352
     34 C          -5.3209   10.3515   -0.0181 C.ar    1  LIG1       -0.0512
     35 C          -6.3455    9.4316   -0.0417 C.ar    1  LIG1       -0.0235
     36 S          -5.7639    7.8638   -0.0443 S.2     1  LIG1       -0.0959
     37 H          -7.6151    9.7108   -0.0601 H       1  LIG1        0.0693
     38 C          -2.9178   10.3673    0.0223 C.3     1  LIG1       -0.0386
     39 H          -3.0590   11.2968    0.5331 H       1  LIG1        0.0278
     40 H          -2.5940   10.5567   -0.9799 H       1  LIG1        0.0278
     41 H          -2.1769    9.7884    0.5331 H       1  LIG1        0.0278
     42 H          -5.4695   11.6429   -0.0111 H       1  LIG1        0.0626
@<TRIPOS>BOND
     1     9     7    1
     2    19    17    1
     3    40    38    1
     4    29    27    1
     5    37    35    1
     6    36    35   ar
     7    36    32   ar
     8    35    34   ar
     9    26    25   ar
    10    26    22   ar
    11    34    42    1
    12    34    33   ar
    13    32    25    1
    14    32    33   ar
    15    25    24   ar
    16    33    38    1
    17    11     3    1
    18     6     1    1
    19     7     2    1
    20     7    10    1
    21     7     8    1
    22     1     2   ar
    23     1     5   ar
    24     2     3   ar
    25     3     4   ar
    26     4     5   ar
    27     4    12    1
    28    21    14    1
    29    17    13    1
    30    17    20    1
    31    17    18    1
    32    12    13   ar
    33    12    16   ar
    34    13    14   ar
    35    14    15   ar
    36    16    15   ar
    37    15    22    1
    38    22    23   ar
    39    24    23   ar
    40    24    31    1
    41    38    41    1
    42    38    39    1
    43    23    27    1
    44    27    30    1
    45    27    28    1
