@<TRIPOS>MOLECULE
mol_data/noopt/geoms/mol2/5ia5ia5ia5ia.out
 42 45 0 0 0
SMALL
GASTEIGER

@<TRIPOS>ATOM
      1 C          -2.0792   -1.7080   -0.0002 C.ar    1  LIG1       -0.0208
      2 C          -0.7020   -1.7080   -0.0002 C.ar    1  LIG1       -0.0428
      3 C          -0.1766   -0.3757   -0.0002 C.ar    1  LIG1       -0.0435
      4 C          -1.1831    0.5643    0.0006 C.ar    1  LIG1        0.0264
      5 S          -2.6937   -0.1528    0.0006 S.2     1  LIG1       -0.0959
      6 H          -2.8374   -2.7640   -0.0008 H       1  LIG1        0.0696
      7 C           0.0505   -2.7685   -0.0004 C.3     1  LIG1       -0.0392
      8 H           0.9694   -2.5538    0.5040 H       1  LIG1        0.0278
      9 H           0.2569   -3.0592   -1.0093 H       1  LIG1        0.0278
     10 H          -0.4556   -3.5650    0.5039 H       1  LIG1        0.0278
     11 H           1.0969   -0.1143   -0.0009 H       1  LIG1        0.0632
     12 C          -1.0166    1.8536    0.0014 C.ar    1  LIG1        0.0294
     13 C           0.1956    2.5069    0.0205 C.ar    1  LIG1       -0.0346
     14 C           0.0262    3.9290    0.0147 C.ar    1  LIG1       -0.0429
     15 C          -1.3056    4.2790   -0.0075 C.ar    1  LIG1        0.0270
     16 S          -2.2951    2.9311   -0.0215 S.2     1  LIG1       -0.0869
     17 C           1.3609    1.9304    0.0410 C.3     1  LIG1       -0.0386
     18 H           2.0609    2.5588    0.5510 H       1  LIG1        0.0278
     19 H           1.6949    1.7652   -0.9621 H       1  LIG1        0.0278
     20 H           1.2860    0.9927    0.5509 H       1  LIG1        0.0278
     21 H           1.0231    4.7632    0.0291 H       1  LIG1        0.0632
     22 C          -1.7706    5.4930   -0.0170 C.ar    1  LIG1        0.0294
     23 C          -1.0132    6.6432   -0.0232 C.ar    1  LIG1       -0.0346
     24 C          -1.8369    7.8147   -0.0340 C.ar    1  LIG1       -0.0429
     25 C          -3.1756    7.4910   -0.0345 C.ar    1  LIG1        0.0270
     26 S          -3.4074    5.8350   -0.0232 S.2     1  LIG1       -0.0869
     27 C           0.2863    6.6885   -0.0202 C.3     1  LIG1       -0.0386
     28 H           0.6112    7.5740    0.4851 H       1  LIG1        0.0278
     29 H           0.6452    6.7010   -1.0282 H       1  LIG1        0.0278
     30 H           0.6720    5.8277    0.4850 H       1  LIG1        0.0278
     31 H          -1.3549    9.0220   -0.0421 H       1  LIG1        0.0632
     32 C          -4.1608    8.3391   -0.0426 C.ar    1  LIG1        0.0288
     33 C          -4.0399    9.7109   -0.0290 C.ar    1  LIG1       -0.0352
     34 C          -5.3207   10.3514   -0.0442 C.ar    1  LIG1       -0.0512
     35 C          -6.3454    9.4315   -0.0677 C.ar    1  LIG1       -0.0235
     36 S          -5.7637    7.8638   -0.0716 S.2     1  LIG1       -0.0959
     37 H          -7.6149    9.7107   -0.0849 H       1  LIG1        0.0693
     38 C          -2.9176   10.3672   -0.0056 C.3     1  LIG1       -0.0386
     39 H          -3.0586   11.2968    0.5052 H       1  LIG1        0.0278
     40 H          -2.5941   10.5565   -1.0078 H       1  LIG1        0.0278
     41 H          -2.1766    9.7884    0.5051 H       1  LIG1        0.0278
     42 H          -5.4693   11.6429   -0.0363 H       1  LIG1        0.0626
@<TRIPOS>BOND
     1    29    27    1
     2     9     7    1
     3    40    38    1
     4    19    17    1
     5    37    35    1
     6    36    35   ar
     7    36    32   ar
     8    35    34   ar
     9    34    42    1
    10    34    33   ar
    11    32    25    1
    12    32    33   ar
    13    31    24    1
    14    25    24   ar
    15    25    26   ar
    16    24    23   ar
    17    33    38    1
    18    23    27    1
    19    23    22   ar
    20    26    22   ar
    21    16    15   ar
    22    16    12   ar
    23    27    30    1
    24    27    28    1
    25    22    15    1
    26    15    14   ar
    27    38    41    1
    28    38    39    1
    29    11     3    1
    30     6     1    1
    31     7     2    1
    32     7    10    1
    33     7     8    1
    34     2     3   ar
    35     2     1   ar
    36     3     4   ar
    37     1     5   ar
    38     5     4   ar
    39     4    12    1
    40    12    13   ar
    41    14    13   ar
    42    14    21    1
    43    13    17    1
    44    17    20    1
    45    17    18    1
