@<TRIPOS>MOLECULE
mol_data/noopt/geoms/mol2/5ia5ia-5ia.out
 32 34 0 0 0
SMALL
GASTEIGER

@<TRIPOS>ATOM
      1 C          -2.0792   -1.7080   -0.0002 C.ar    1  LIG1       -0.0208
      2 C          -0.7020   -1.7080   -0.0002 C.ar    1  LIG1       -0.0428
      3 C          -0.1766   -0.3757   -0.0002 C.ar    1  LIG1       -0.0435
      4 C          -1.1831    0.5643    0.0006 C.ar    1  LIG1        0.0264
      5 S          -2.6937   -0.1528    0.0006 S.2     1  LIG1       -0.0959
      6 H          -2.8374   -2.7640   -0.0008 H       1  LIG1        0.0696
      7 C           0.0505   -2.7685   -0.0004 C.3     1  LIG1       -0.0392
      8 H           0.9694   -2.5538    0.5040 H       1  LIG1        0.0278
      9 H           0.2569   -3.0592   -1.0093 H       1  LIG1        0.0278
     10 H          -0.4556   -3.5650    0.5039 H       1  LIG1        0.0278
     11 H           1.0969   -0.1143   -0.0009 H       1  LIG1        0.0632
     12 C          -1.0166    1.8536    0.0014 C.ar    1  LIG1        0.0294
     13 C           0.1958    2.5069    0.0015 C.ar    1  LIG1       -0.0346
     14 C           0.0263    3.9290    0.0017 C.ar    1  LIG1       -0.0429
     15 C          -1.3057    4.2790    0.0026 C.ar    1  LIG1        0.0270
     16 S          -2.2953    2.9311    0.0023 S.2     1  LIG1       -0.0869
     17 C           1.3613    1.9304    0.0013 C.3     1  LIG1       -0.0386
     18 H           2.0684    2.5552    0.5056 H       1  LIG1        0.0278
     19 H           1.6808    1.7723   -1.0077 H       1  LIG1        0.0278
     20 H           1.2936    0.9891    0.5055 H       1  LIG1        0.0278
     21 H           1.0233    4.7632    0.0012 H       1  LIG1        0.0632
     22 C          -1.7708    5.4930    0.0035 C.ar    1  LIG1        0.0288
     23 C          -1.0134    6.6433    0.0038 C.ar    1  LIG1       -0.0352
     24 C          -1.8373    7.8147    0.0042 C.ar    1  LIG1       -0.0512
     25 C          -3.1759    7.4910    0.0050 C.ar    1  LIG1       -0.0235
     26 S          -3.4076    5.8350    0.0046 S.2     1  LIG1       -0.0959
     27 H          -4.1612    8.3391    0.0062 H       1  LIG1        0.0693
     28 C           0.2861    6.6886    0.0034 C.3     1  LIG1       -0.0386
     29 H           0.6122    7.5742    0.5078 H       1  LIG1        0.0278
     30 H           0.6423    6.7011   -1.0055 H       1  LIG1        0.0278
     31 H           0.6731    5.8279    0.5077 H       1  LIG1        0.0278
     32 H          -1.3553    9.0221    0.0038 H       1  LIG1        0.0626
@<TRIPOS>BOND
     1     9     7    1
     2    19    17    1
     3    30    28    1
     4    11     3    1
     5     6     1    1
     6     7     2    1
     7     7    10    1
     8     7     8    1
     9     2     3   ar
    10     2     1   ar
    11     3     4   ar
    12     1     5   ar
    13     4     5   ar
    14     4    12    1
    15    21    14    1
    16    17    13    1
    17    17    20    1
    18    17    18    1
    19    12    13   ar
    20    12    16   ar
    21    13    14   ar
    22    14    15   ar
    23    16    15   ar
    24    15    22    1
    25    28    23    1
    26    28    31    1
    27    28    29    1
    28    22    23   ar
    29    22    26   ar
    30    32    24    1
    31    23    24   ar
    32    24    25   ar
    33    26    25   ar
    34    25    27    1
