@<TRIPOS>MOLECULE
mol_data/noopt/geoms/mol2/5ia5ia5ia-.out
 32 34 0 0 0
SMALL
GASTEIGER

@<TRIPOS>ATOM
      1 C          -2.0792   -1.7080   -0.0002 C.ar    1  LIG1       -0.0208
      2 C          -0.7020   -1.7080   -0.0002 C.ar    1  LIG1       -0.0428
      3 C          -0.1766   -0.3757   -0.0002 C.ar    1  LIG1       -0.0435
      4 C          -1.1831    0.5643    0.0006 C.ar    1  LIG1        0.0264
      5 S          -2.6937   -0.1528    0.0006 S.2     1  LIG1       -0.0959
      6 H          -2.8374   -2.7640   -0.0008 H       1  LIG1        0.0696
      7 C           0.0505   -2.7685   -0.0004 C.3     1  LIG1       -0.0392
      8 H           0.9694   -2.5538    0.5040 H       1  LIG1        0.0278
      9 H           0.2569   -3.0592   -1.0093 H       1  LIG1        0.0278
     10 H          -0.4556   -3.5650    0.5039 H       1  LIG1        0.0278
     11 H           1.0969   -0.1143   -0.0009 H       1  LIG1        0.0632
     12 C          -1.0166    1.8536    0.0014 C.ar    1  LIG1        0.0294
     13 C           0.1956    2.5069    0.0205 C.ar    1  LIG1       -0.0346
     14 C           0.0262    3.9290    0.0147 C.ar    1  LIG1       -0.0429
     15 C          -1.3056    4.2790   -0.0075 C.ar    1  LIG1        0.0270
     16 S          -2.2951    2.9311   -0.0215 S.2     1  LIG1       -0.0869
     17 C           1.3609    1.9304    0.0410 C.3     1  LIG1       -0.0386
     18 H           2.0609    2.5588    0.5510 H       1  LIG1        0.0278
     19 H           1.6949    1.7652   -0.9621 H       1  LIG1        0.0278
     20 H           1.2860    0.9927    0.5509 H       1  LIG1        0.0278
     21 H           1.0231    4.7632    0.0291 H       1  LIG1        0.0632
     22 C          -1.7706    5.4930   -0.0170 C.ar    1  LIG1        0.0288
     23 C          -1.0134    6.6433   -0.0043 C.ar    1  LIG1       -0.0352
     24 C          -1.8371    7.8147   -0.0210 C.ar    1  LIG1       -0.0512
     25 C          -3.1754    7.4910   -0.0446 C.ar    1  LIG1       -0.0235
     26 S          -3.4072    5.8350   -0.0470 S.2     1  LIG1       -0.0959
     27 H          -4.1606    8.3390   -0.0631 H       1  LIG1        0.0693
     28 C           0.2859    6.6886    0.0196 C.3     1  LIG1       -0.0386
     29 H           0.6026    7.5738    0.5305 H       1  LIG1        0.0278
     30 H           0.6609    6.7018   -0.9825 H       1  LIG1        0.0278
     31 H           0.6635    5.8276    0.5304 H       1  LIG1        0.0278
     32 H          -1.3552    9.0221   -0.0141 H       1  LIG1        0.0626
@<TRIPOS>BOND
     1     9     7    1
     2    30    28    1
     3    19    17    1
     4    27    25    1
     5    26    25   ar
     6    26    22   ar
     7    25    24   ar
     8    16    15   ar
     9    16    12   ar
    10    24    32    1
    11    24    23   ar
    12    22    15    1
    13    22    23   ar
    14    15    14   ar
    15    23    28    1
    16    11     3    1
    17     6     1    1
    18     7     2    1
    19     7    10    1
    20     7     8    1
    21     1     2   ar
    22     1     5   ar
    23     3     2   ar
    24     3     4   ar
    25     5     4   ar
    26     4    12    1
    27    12    13   ar
    28    14    13   ar
    29    14    21    1
    30    28    31    1
    31    28    29    1
    32    13    17    1
    33    17    20    1
    34    17    18    1
