@<TRIPOS>MOLECULE
mol_data/noopt/geoms/mol2/5id5id5id-5id.out
 46 49 0 0 0
SMALL
GASTEIGER

@<TRIPOS>ATOM
      1 C          -2.0792   -1.7080   -0.0002 C.ar    1  LIG1       -0.0196
      2 C          -0.7020   -1.7080   -0.0002 C.ar    1  LIG1       -0.0255
      3 C          -0.1766   -0.3757   -0.0002 C.ar    1  LIG1        0.0699
      4 C          -1.1831    0.5643    0.0006 C.ar    1  LIG1        0.0438
      5 S          -2.6937   -0.1528    0.0006 S.2     1  LIG1       -0.0945
      6 H          -2.8374   -2.7640   -0.0008 H       1  LIG1        0.0696
      7 C           0.0505   -2.7685   -0.0004 C.3     1  LIG1       -0.0380
      8 H           0.9694   -2.5538    0.5040 H       1  LIG1        0.0278
      9 H           0.2569   -3.0592   -1.0093 H       1  LIG1        0.0278
     10 H          -0.4556   -3.5650    0.5039 H       1  LIG1        0.0278
     11 N           2.2200    0.1162   -0.0015 N.1     1  LIG1       -0.1908
     12 C           1.0969   -0.1143   -0.0009 C.1     1  LIG1        0.1006
     13 C          -1.0166    1.8536    0.0014 C.ar    1  LIG1        0.0319
     14 C           0.1956    2.5069    0.0205 C.ar    1  LIG1       -0.0172
     15 C           0.0262    3.9290    0.0147 C.ar    1  LIG1        0.0705
     16 C          -1.3056    4.2790   -0.0075 C.ar    1  LIG1        0.0444
     17 S          -2.2951    2.9311   -0.0215 S.2     1  LIG1       -0.0856
     18 C           1.3609    1.9304    0.0410 C.3     1  LIG1       -0.0374
     19 H           2.0609    2.5588    0.5510 H       1  LIG1        0.0278
     20 H           1.6949    1.7652   -0.9621 H       1  LIG1        0.0278
     21 H           1.2860    0.9927    0.5509 H       1  LIG1        0.0278
     22 N           1.9024    5.4990    0.0418 N.1     1  LIG1       -0.1908
     23 C           1.0231    4.7632    0.0291 C.1     1  LIG1        0.1006
     24 C          -1.7706    5.4930   -0.0170 C.ar    1  LIG1        0.0319
     25 C          -1.0134    6.6433   -0.0043 C.ar    1  LIG1       -0.0172
     26 C          -1.8371    7.8147   -0.0210 C.ar    1  LIG1        0.0705
     27 C          -3.1754    7.4910   -0.0446 C.ar    1  LIG1        0.0444
     28 S          -3.4072    5.8350   -0.0470 S.2     1  LIG1       -0.0856
     29 C           0.2859    6.6886    0.0196 C.3     1  LIG1       -0.0374
     30 H           0.6026    7.5738    0.5305 H       1  LIG1        0.0278
     31 H           0.6609    6.7018   -0.9825 H       1  LIG1        0.0278
     32 H           0.6635    5.8276    0.5304 H       1  LIG1        0.0278
     33 N          -0.9301   10.0870   -0.0081 N.1     1  LIG1       -0.1908
     34 C          -1.3552    9.0221   -0.0141 C.1     1  LIG1        0.1006
     35 C          -4.1606    8.3390   -0.0631 C.ar    1  LIG1        0.0313
     36 C          -4.0397    9.7109   -0.0560 C.ar    1  LIG1       -0.0178
     37 C          -5.3204   10.3513   -0.0823 C.ar    1  LIG1        0.0623
     38 C          -6.3449    9.4313   -0.1072 C.ar    1  LIG1       -0.0061
     39 S          -5.7633    7.8636   -0.0994 S.2     1  LIG1       -0.0945
     40 H          -7.6143    9.7105   -0.1337 H       1  LIG1        0.0706
     41 C          -2.9175   10.3673   -0.0292 C.3     1  LIG1       -0.0374
     42 H          -3.0598   11.2962    0.4825 H       1  LIG1        0.0278
     43 H          -2.5918   10.5579   -1.0305 H       1  LIG1        0.0278
     44 H          -2.1776    9.7879    0.4824 H       1  LIG1        0.0278
     45 N          -5.5999   12.7819   -0.0819 N.1     1  LIG1       -0.1908
     46 C          -5.4689   11.6428   -0.0821 C.1     1  LIG1        0.1000
@<TRIPOS>BOND
     1    43    41    1
     2     9     7    1
     3    31    29    1
     4    20    18    1
     5    40    38    1
     6    38    39   ar
     7    38    37   ar
     8    39    35   ar
     9    37    46    1
    10    37    36   ar
    11    46    45    3
    12    35    36   ar
    13    35    27    1
    14    36    41    1
    15    28    27   ar
    16    28    24   ar
    17    27    26   ar
    18    41    44    1
    19    41    42    1
    20    17    16   ar
    21    17    13   ar
    22    26    34    1
    23    26    25   ar
    24    24    16    1
    25    24    25   ar
    26    34    33    3
    27    16    15   ar
    28    25    29    1
    29    11    12    3
    30    12     3    1
    31     6     1    1
    32     7     2    1
    33     7    10    1
    34     7     8    1
    35     2     3   ar
    36     2     1   ar
    37     3     4   ar
    38     1     5   ar
    39     4     5   ar
    40     4    13    1
    41    13    14   ar
    42    15    14   ar
    43    15    23    1
    44    29    32    1
    45    29    30    1
    46    14    18    1
    47    23    22    3
    48    18    21    1
    49    18    19    1
