@<TRIPOS>MOLECULE
mol_data/noopt/geoms/mol2/5id5id-5id-5id-.out
 46 49 0 0 0
SMALL
GASTEIGER

@<TRIPOS>ATOM
      1 C          -2.0792   -1.7080   -0.0002 C.ar    1  LIG1       -0.0196
      2 C          -0.7020   -1.7080   -0.0002 C.ar    1  LIG1       -0.0255
      3 C          -0.1766   -0.3757   -0.0002 C.ar    1  LIG1        0.0699
      4 C          -1.1831    0.5643    0.0006 C.ar    1  LIG1        0.0438
      5 S          -2.6937   -0.1528    0.0006 S.2     1  LIG1       -0.0945
      6 H          -2.8374   -2.7640   -0.0008 H       1  LIG1        0.0696
      7 C           0.0505   -2.7685   -0.0004 C.3     1  LIG1       -0.0380
      8 H           0.9694   -2.5538    0.5040 H       1  LIG1        0.0278
      9 H           0.2569   -3.0592   -1.0093 H       1  LIG1        0.0278
     10 H          -0.4556   -3.5650    0.5039 H       1  LIG1        0.0278
     11 N           2.2200    0.1162   -0.0015 N.1     1  LIG1       -0.1908
     12 C           1.0969   -0.1143   -0.0009 C.1     1  LIG1        0.1006
     13 C          -1.0166    1.8536    0.0014 C.ar    1  LIG1        0.0319
     14 C           0.1958    2.5069    0.0015 C.ar    1  LIG1       -0.0172
     15 C           0.0263    3.9290    0.0017 C.ar    1  LIG1        0.0705
     16 C          -1.3057    4.2790    0.0026 C.ar    1  LIG1        0.0444
     17 S          -2.2953    2.9311    0.0023 S.2     1  LIG1       -0.0856
     18 C           1.3613    1.9304    0.0013 C.3     1  LIG1       -0.0374
     19 H           2.0684    2.5552    0.5056 H       1  LIG1        0.0278
     20 H           1.6808    1.7723   -1.0077 H       1  LIG1        0.0278
     21 H           1.2936    0.9891    0.5055 H       1  LIG1        0.0278
     22 N           1.9027    5.4990    0.0007 N.1     1  LIG1       -0.1908
     23 C           1.0233    4.7632    0.0012 C.1     1  LIG1        0.1006
     24 C          -1.7708    5.4930    0.0035 C.ar    1  LIG1        0.0319
     25 C          -1.0136    6.6432    0.0227 C.ar    1  LIG1       -0.0172
     26 C          -1.8374    7.8147    0.0172 C.ar    1  LIG1        0.0705
     27 C          -3.1758    7.4910   -0.0051 C.ar    1  LIG1        0.0444
     28 S          -3.4074    5.8351   -0.0192 S.2     1  LIG1       -0.0856
     29 C           0.2858    6.6885    0.0432 C.3     1  LIG1       -0.0374
     30 H           0.6039    7.5737    0.5532 H       1  LIG1        0.0278
     31 H           0.6581    6.7015   -0.9599 H       1  LIG1        0.0278
     32 H           0.6646    5.8274    0.5531 H       1  LIG1        0.0278
     33 N          -0.9305   10.0869    0.0445 N.1     1  LIG1       -0.1908
     34 C          -1.3555    9.0220    0.0317 C.1     1  LIG1        0.1006
     35 C          -4.1610    8.3391   -0.0144 C.ar    1  LIG1        0.0313
     36 C          -4.0399    9.7110   -0.0205 C.ar    1  LIG1       -0.0178
     37 C          -5.3208   10.3515   -0.0311 C.ar    1  LIG1        0.0623
     38 C          -6.3457    9.4315   -0.0316 C.ar    1  LIG1       -0.0061
     39 S          -5.7642    7.8638   -0.0205 S.2     1  LIG1       -0.0945
     40 H          -7.6153    9.7107   -0.0396 H       1  LIG1        0.0706
     41 C          -2.9174   10.3673   -0.0175 C.3     1  LIG1       -0.0374
     42 H          -3.0514   11.3010    0.4878 H       1  LIG1        0.0278
     43 H          -2.6075   10.5486   -1.0255 H       1  LIG1        0.0278
     44 H          -2.1695    9.7925    0.4877 H       1  LIG1        0.0278
     45 N          -5.6000   12.7820   -0.0461 N.1     1  LIG1       -0.1908
     46 C          -5.4692   11.6430   -0.0391 C.1     1  LIG1        0.1000
@<TRIPOS>BOND
     1    43    41    1
     2     9     7    1
     3    20    18    1
     4    31    29    1
     5    45    46    3
     6    40    38    1
     7    46    37    1
     8    38    37   ar
     9    38    39   ar
    10    37    36   ar
    11    36    41    1
    12    36    35   ar
    13    39    35   ar
    14    28    27   ar
    15    28    24   ar
    16    41    44    1
    17    41    42    1
    18    35    27    1
    19    27    26   ar
    20    11    12    3
    21    12     3    1
    22     6     1    1
    23     7     2    1
    24     7    10    1
    25     7     8    1
    26     1     2   ar
    27     1     5   ar
    28     2     3   ar
    29     3     4   ar
    30     4     5   ar
    31     4    13    1
    32    22    23    3
    33    23    15    1
    34    18    14    1
    35    18    21    1
    36    18    19    1
    37    13    14   ar
    38    13    17   ar
    39    14    15   ar
    40    15    16   ar
    41    17    16   ar
    42    16    24    1
    43    24    25   ar
    44    26    25   ar
    45    26    34    1
    46    25    29    1
    47    34    33    3
    48    29    32    1
    49    29    30    1
