@<TRIPOS>MOLECULE
mol_data/noopt/geoms/mol2/5id5id-5id5id-.out
 46 49 0 0 0
SMALL
GASTEIGER

@<TRIPOS>ATOM
      1 C          -2.0792   -1.7080   -0.0002 C.ar    1  LIG1       -0.0196
      2 C          -0.7020   -1.7080   -0.0002 C.ar    1  LIG1       -0.0255
      3 C          -0.1766   -0.3757   -0.0002 C.ar    1  LIG1        0.0699
      4 C          -1.1831    0.5643    0.0006 C.ar    1  LIG1        0.0438
      5 S          -2.6937   -0.1528    0.0006 S.2     1  LIG1       -0.0945
      6 H          -2.8374   -2.7640   -0.0008 H       1  LIG1        0.0696
      7 C           0.0505   -2.7685   -0.0004 C.3     1  LIG1       -0.0380
      8 H           0.9694   -2.5538    0.5040 H       1  LIG1        0.0278
      9 H           0.2569   -3.0592   -1.0093 H       1  LIG1        0.0278
     10 H          -0.4556   -3.5650    0.5039 H       1  LIG1        0.0278
     11 N           2.2200    0.1162   -0.0015 N.1     1  LIG1       -0.1908
     12 C           1.0969   -0.1143   -0.0009 C.1     1  LIG1        0.1006
     13 C          -1.0166    1.8536    0.0014 C.ar    1  LIG1        0.0319
     14 C           0.1958    2.5069    0.0015 C.ar    1  LIG1       -0.0172
     15 C           0.0263    3.9290    0.0017 C.ar    1  LIG1        0.0705
     16 C          -1.3057    4.2790    0.0026 C.ar    1  LIG1        0.0444
     17 S          -2.2953    2.9311    0.0023 S.2     1  LIG1       -0.0856
     18 C           1.3613    1.9304    0.0013 C.3     1  LIG1       -0.0374
     19 H           2.0684    2.5552    0.5056 H       1  LIG1        0.0278
     20 H           1.6808    1.7723   -1.0077 H       1  LIG1        0.0278
     21 H           1.2936    0.9891    0.5055 H       1  LIG1        0.0278
     22 N           1.9027    5.4990    0.0007 N.1     1  LIG1       -0.1908
     23 C           1.0233    4.7632    0.0012 C.1     1  LIG1        0.1006
     24 C          -1.7708    5.4930    0.0035 C.ar    1  LIG1        0.0319
     25 C          -1.0134    6.6433    0.0038 C.ar    1  LIG1       -0.0172
     26 C          -1.8373    7.8147    0.0042 C.ar    1  LIG1        0.0705
     27 C          -3.1759    7.4910    0.0050 C.ar    1  LIG1        0.0444
     28 S          -3.4076    5.8350    0.0046 S.2     1  LIG1       -0.0856
     29 C           0.2861    6.6886    0.0034 C.3     1  LIG1       -0.0374
     30 H           0.6122    7.5742    0.5078 H       1  LIG1        0.0278
     31 H           0.6423    6.7011   -1.0055 H       1  LIG1        0.0278
     32 H           0.6731    5.8279    0.5077 H       1  LIG1        0.0278
     33 N          -0.9302   10.0870    0.0034 N.1     1  LIG1       -0.1908
     34 C          -1.3553    9.0221    0.0038 C.1     1  LIG1        0.1006
     35 C          -4.1612    8.3391    0.0062 C.ar    1  LIG1        0.0313
     36 C          -4.0401    9.7109    0.0065 C.ar    1  LIG1       -0.0178
     37 C          -5.3211   10.3514    0.0071 C.ar    1  LIG1        0.0623
     38 C          -6.3459    9.4314    0.0079 C.ar    1  LIG1       -0.0061
     39 S          -5.7643    7.8636    0.0073 S.2     1  LIG1       -0.0945
     40 H          -7.6156    9.7105    0.0092 H       1  LIG1        0.0706
     41 C          -2.9177   10.3673    0.0061 C.3     1  LIG1       -0.0374
     42 H          -3.0506   11.3016    0.5104 H       1  LIG1        0.0278
     43 H          -2.6100   10.5473   -1.0028 H       1  LIG1        0.0278
     44 H          -2.1686    9.7932    0.5104 H       1  LIG1        0.0278
     45 N          -5.6006   12.7820    0.0065 N.1     1  LIG1       -0.1908
     46 C          -5.4696   11.6429    0.0067 C.1     1  LIG1        0.1000
@<TRIPOS>BOND
     1     9     7    1
     2    20    18    1
     3    31    29    1
     4    43    41    1
     5    11    12    3
     6    12     3    1
     7     6     1    1
     8     7     2    1
     9     7    10    1
    10     7     8    1
    11     2     3   ar
    12     2     1   ar
    13     3     4   ar
    14     1     5   ar
    15     4     5   ar
    16     4    13    1
    17    22    23    3
    18    23    15    1
    19    18    14    1
    20    18    21    1
    21    18    19    1
    22    13    14   ar
    23    13    17   ar
    24    14    15   ar
    25    15    16   ar
    26    17    16   ar
    27    16    24    1
    28    33    34    3
    29    29    25    1
    30    29    32    1
    31    29    30    1
    32    24    25   ar
    33    24    28   ar
    34    34    26    1
    35    25    26   ar
    36    26    27   ar
    37    28    27   ar
    38    27    35    1
    39    41    36    1
    40    41    44    1
    41    41    42    1
    42    35    36   ar
    43    35    39   ar
    44    45    46    3
    45    36    37   ar
    46    46    37    1
    47    37    38   ar
    48    39    38   ar
    49    38    40    1
