@<TRIPOS>MOLECULE
mol_data/noopt/geoms/mol2/5id5id5id5id.out
 46 49 0 0 0
SMALL
GASTEIGER

@<TRIPOS>ATOM
      1 C          -2.0792   -1.7080   -0.0002 C.ar    1  LIG1       -0.0196
      2 C          -0.7020   -1.7080   -0.0002 C.ar    1  LIG1       -0.0255
      3 C          -0.1766   -0.3757   -0.0002 C.ar    1  LIG1        0.0699
      4 C          -1.1831    0.5643    0.0006 C.ar    1  LIG1        0.0438
      5 S          -2.6937   -0.1528    0.0006 S.2     1  LIG1       -0.0945
      6 H          -2.8374   -2.7640   -0.0008 H       1  LIG1        0.0696
      7 C           0.0505   -2.7685   -0.0004 C.3     1  LIG1       -0.0380
      8 H           0.9694   -2.5538    0.5040 H       1  LIG1        0.0278
      9 H           0.2569   -3.0592   -1.0093 H       1  LIG1        0.0278
     10 H          -0.4556   -3.5650    0.5039 H       1  LIG1        0.0278
     11 N           2.2200    0.1162   -0.0015 N.1     1  LIG1       -0.1908
     12 C           1.0969   -0.1143   -0.0009 C.1     1  LIG1        0.1006
     13 C          -1.0166    1.8536    0.0014 C.ar    1  LIG1        0.0319
     14 C           0.1956    2.5069    0.0205 C.ar    1  LIG1       -0.0172
     15 C           0.0262    3.9290    0.0147 C.ar    1  LIG1        0.0705
     16 C          -1.3056    4.2790   -0.0075 C.ar    1  LIG1        0.0444
     17 S          -2.2951    2.9311   -0.0215 S.2     1  LIG1       -0.0856
     18 C           1.3609    1.9304    0.0410 C.3     1  LIG1       -0.0374
     19 H           2.0609    2.5588    0.5510 H       1  LIG1        0.0278
     20 H           1.6949    1.7652   -0.9621 H       1  LIG1        0.0278
     21 H           1.2860    0.9927    0.5509 H       1  LIG1        0.0278
     22 N           1.9024    5.4990    0.0418 N.1     1  LIG1       -0.1908
     23 C           1.0231    4.7632    0.0291 C.1     1  LIG1        0.1006
     24 C          -1.7706    5.4930   -0.0170 C.ar    1  LIG1        0.0319
     25 C          -1.0132    6.6432   -0.0232 C.ar    1  LIG1       -0.0172
     26 C          -1.8369    7.8147   -0.0340 C.ar    1  LIG1        0.0705
     27 C          -3.1756    7.4910   -0.0345 C.ar    1  LIG1        0.0444
     28 S          -3.4074    5.8350   -0.0232 S.2     1  LIG1       -0.0856
     29 C           0.2863    6.6885   -0.0202 C.3     1  LIG1       -0.0374
     30 H           0.6112    7.5740    0.4851 H       1  LIG1        0.0278
     31 H           0.6452    6.7010   -1.0282 H       1  LIG1        0.0278
     32 H           0.6720    5.8277    0.4850 H       1  LIG1        0.0278
     33 N          -0.9297   10.0868   -0.0492 N.1     1  LIG1       -0.1908
     34 C          -1.3549    9.0220   -0.0421 C.1     1  LIG1        0.1006
     35 C          -4.1608    8.3391   -0.0426 C.ar    1  LIG1        0.0313
     36 C          -4.0399    9.7109   -0.0290 C.ar    1  LIG1       -0.0178
     37 C          -5.3207   10.3514   -0.0442 C.ar    1  LIG1        0.0623
     38 C          -6.3454    9.4315   -0.0677 C.ar    1  LIG1       -0.0061
     39 S          -5.7637    7.8638   -0.0716 S.2     1  LIG1       -0.0945
     40 H          -7.6149    9.7107   -0.0849 H       1  LIG1        0.0706
     41 C          -2.9176   10.3672   -0.0056 C.3     1  LIG1       -0.0374
     42 H          -3.0586   11.2968    0.5052 H       1  LIG1        0.0278
     43 H          -2.5941   10.5565   -1.0078 H       1  LIG1        0.0278
     44 H          -2.1766    9.7884    0.5051 H       1  LIG1        0.0278
     45 N          -5.6003   12.7820   -0.0294 N.1     1  LIG1       -0.1908
     46 C          -5.4693   11.6429   -0.0363 C.1     1  LIG1        0.1000
@<TRIPOS>BOND
     1    31    29    1
     2     9     7    1
     3    43    41    1
     4    20    18    1
     5    40    38    1
     6    39    38   ar
     7    39    35   ar
     8    38    37   ar
     9    33    34    3
    10    37    46    1
    11    37    36   ar
    12    35    27    1
    13    35    36   ar
    14    34    26    1
    15    46    45    3
    16    27    26   ar
    17    27    28   ar
    18    26    25   ar
    19    36    41    1
    20    25    29    1
    21    25    24   ar
    22    28    24   ar
    23    17    16   ar
    24    17    13   ar
    25    29    32    1
    26    29    30    1
    27    24    16    1
    28    16    15   ar
    29    41    44    1
    30    41    42    1
    31    11    12    3
    32    12     3    1
    33     6     1    1
    34     7     2    1
    35     7    10    1
    36     7     8    1
    37     2     3   ar
    38     2     1   ar
    39     3     4   ar
    40     1     5   ar
    41     4     5   ar
    42     4    13    1
    43    13    14   ar
    44    15    14   ar
    45    15    23    1
    46    14    18    1
    47    23    22    3
    48    18    21    1
    49    18    19    1
