@<TRIPOS>MOLECULE
mol_data/noopt/geoms/mol2/5id5id-.out
 24 25 0 0 0
SMALL
GASTEIGER

@<TRIPOS>ATOM
      1 C          -2.0792   -1.7080   -0.0002 C.ar    1  LIG1       -0.0196
      2 C          -0.7020   -1.7080   -0.0002 C.ar    1  LIG1       -0.0255
      3 C          -0.1766   -0.3757   -0.0002 C.ar    1  LIG1        0.0699
      4 C          -1.1831    0.5643    0.0006 C.ar    1  LIG1        0.0438
      5 S          -2.6937   -0.1528    0.0006 S.2     1  LIG1       -0.0945
      6 H          -2.8374   -2.7640   -0.0008 H       1  LIG1        0.0696
      7 C           0.0505   -2.7685   -0.0004 C.3     1  LIG1       -0.0380
      8 H           0.9694   -2.5538    0.5040 H       1  LIG1        0.0278
      9 H           0.2569   -3.0592   -1.0093 H       1  LIG1        0.0278
     10 H          -0.4556   -3.5650    0.5039 H       1  LIG1        0.0278
     11 N           2.2200    0.1162   -0.0015 N.1     1  LIG1       -0.1908
     12 C           1.0969   -0.1143   -0.0009 C.1     1  LIG1        0.1006
     13 C          -1.0166    1.8536    0.0014 C.ar    1  LIG1        0.0313
     14 C           0.1958    2.5069    0.0015 C.ar    1  LIG1       -0.0178
     15 C           0.0263    3.9290    0.0017 C.ar    1  LIG1        0.0623
     16 C          -1.3057    4.2790    0.0026 C.ar    1  LIG1       -0.0061
     17 S          -2.2953    2.9311    0.0023 S.2     1  LIG1       -0.0945
     18 H          -1.7708    5.4930    0.0035 H       1  LIG1        0.0706
     19 C           1.3613    1.9304    0.0013 C.3     1  LIG1       -0.0374
     20 H           2.0684    2.5552    0.5056 H       1  LIG1        0.0278
     21 H           1.6808    1.7723   -1.0077 H       1  LIG1        0.0278
     22 H           1.2936    0.9891    0.5055 H       1  LIG1        0.0278
     23 N           1.9027    5.4990    0.0007 N.1     1  LIG1       -0.1908
     24 C           1.0233    4.7632    0.0012 C.1     1  LIG1        0.1000
@<TRIPOS>BOND
     1     9     7    1
     2    21    19    1
     3    11    12    3
     4    12     3    1
     5     6     1    1
     6     7     2    1
     7     7    10    1
     8     7     8    1
     9     2     3   ar
    10     2     1   ar
    11     3     4   ar
    12     1     5   ar
    13     4     5   ar
    14     4    13    1
    15    23    24    3
    16    24    15    1
    17    19    14    1
    18    19    22    1
    19    19    20    1
    20    13    14   ar
    21    13    17   ar
    22    14    15   ar
    23    15    16   ar
    24    17    16   ar
    25    16    18    1
