@<TRIPOS>MOLECULE
mol_data/noopt/geoms/mol2/5ie5ie5ie-.out
 38 40 0 0 0
SMALL
GASTEIGER

@<TRIPOS>ATOM
      1 C          -2.0792   -1.7080   -0.0002 C.ar    1  LIG1       -0.0196
      2 C          -0.7020   -1.7080   -0.0002 C.ar    1  LIG1       -0.0274
      3 C          -0.1766   -0.3757   -0.0002 C.ar    1  LIG1        0.0428
      4 C          -1.1831    0.5643    0.0006 C.ar    1  LIG1        0.0418
      5 S          -2.6937   -0.1528    0.0006 S.2     1  LIG1       -0.0946
      6 H          -2.8374   -2.7640   -0.0008 H       1  LIG1        0.0696
      7 C           0.0505   -2.7685   -0.0004 C.3     1  LIG1       -0.0380
      8 H           0.9694   -2.5538    0.5040 H       1  LIG1        0.0278
      9 H           0.2569   -3.0592   -1.0093 H       1  LIG1        0.0278
     10 H          -0.4556   -3.5650    0.5039 H       1  LIG1        0.0278
     11 C           1.0969   -0.1143   -0.0009 C.1     1  LIG1       -0.0682
     12 C           2.2735    0.1272   -0.0015 C.1     1  LIG1       -0.1139
     13 H           3.3217    0.3424   -0.0021 H       1  LIG1        0.1232
     14 C          -1.0166    1.8536    0.0014 C.ar    1  LIG1        0.0318
     15 C           0.1956    2.5069    0.0205 C.ar    1  LIG1       -0.0191
     16 C           0.0262    3.9290    0.0147 C.ar    1  LIG1        0.0435
     17 C          -1.3056    4.2790   -0.0075 C.ar    1  LIG1        0.0424
     18 S          -2.2951    2.9311   -0.0215 S.2     1  LIG1       -0.0856
     19 C           1.3609    1.9304    0.0410 C.3     1  LIG1       -0.0374
     20 H           2.0609    2.5588    0.5510 H       1  LIG1        0.0278
     21 H           1.6949    1.7652   -0.9621 H       1  LIG1        0.0278
     22 H           1.2860    0.9927    0.5509 H       1  LIG1        0.0278
     23 C           1.0231    4.7632    0.0291 C.1     1  LIG1       -0.0682
     24 C           1.9443    5.5341    0.0424 C.1     1  LIG1       -0.1139
     25 H           2.7648    6.2207    0.0542 H       1  LIG1        0.1232
     26 C          -1.7706    5.4930   -0.0170 C.ar    1  LIG1        0.0312
     27 C          -1.0134    6.6433   -0.0043 C.ar    1  LIG1       -0.0198
     28 C          -1.8371    7.8147   -0.0210 C.ar    1  LIG1        0.0352
     29 C          -3.1754    7.4910   -0.0446 C.ar    1  LIG1       -0.0081
     30 S          -3.4072    5.8350   -0.0470 S.2     1  LIG1       -0.0946
     31 H          -4.1606    8.3390   -0.0631 H       1  LIG1        0.0706
     32 C           0.2859    6.6886    0.0196 C.3     1  LIG1       -0.0374
     33 H           0.6026    7.5738    0.5305 H       1  LIG1        0.0278
     34 H           0.6609    6.7018   -0.9825 H       1  LIG1        0.0278
     35 H           0.6635    5.8276    0.5304 H       1  LIG1        0.0278
     36 C          -1.3552    9.0221   -0.0141 C.1     1  LIG1       -0.0688
     37 C          -0.9099   10.1377   -0.0078 C.1     1  LIG1       -0.1139
     38 H          -0.5132   11.1314   -0.0022 H       1  LIG1        0.1232
@<TRIPOS>BOND
     1     9     7    1
     2    34    32    1
     3    21    19    1
     4    31    29    1
     5    30    29   ar
     6    30    26   ar
     7    29    28   ar
     8    18    17   ar
     9    18    14   ar
    10    28    36    1
    11    28    27   ar
    12    26    17    1
    13    26    27   ar
    14    36    37    3
    15    37    38    1
    16    17    16   ar
    17    27    32    1
    18    13    12    1
    19    12    11    3
    20    11     3    1
    21     6     1    1
    22     7     2    1
    23     7    10    1
    24     7     8    1
    25     1     2   ar
    26     1     5   ar
    27     2     3   ar
    28     3     4   ar
    29     4     5   ar
    30     4    14    1
    31    14    15   ar
    32    16    15   ar
    33    16    23    1
    34    32    35    1
    35    32    33    1
    36    15    19    1
    37    23    24    3
    38    19    22    1
    39    19    20    1
    40    24    25    1
