@<TRIPOS>MOLECULE
mol_data/noopt/geoms/mol2/5ie5ie-5ie-5ie-.out
 50 53 0 0 0
SMALL
GASTEIGER

@<TRIPOS>ATOM
      1 C          -2.0792   -1.7080   -0.0002 C.ar    1  LIG1       -0.0196
      2 C          -0.7020   -1.7080   -0.0002 C.ar    1  LIG1       -0.0274
      3 C          -0.1766   -0.3757   -0.0002 C.ar    1  LIG1        0.0428
      4 C          -1.1831    0.5643    0.0006 C.ar    1  LIG1        0.0418
      5 S          -2.6937   -0.1528    0.0006 S.2     1  LIG1       -0.0946
      6 H          -2.8374   -2.7640   -0.0008 H       1  LIG1        0.0696
      7 C           0.0505   -2.7685   -0.0004 C.3     1  LIG1       -0.0380
      8 H           0.9694   -2.5538    0.5040 H       1  LIG1        0.0278
      9 H           0.2569   -3.0592   -1.0093 H       1  LIG1        0.0278
     10 H          -0.4556   -3.5650    0.5039 H       1  LIG1        0.0278
     11 C           1.0969   -0.1143   -0.0009 C.1     1  LIG1       -0.0682
     12 C           2.2735    0.1272   -0.0015 C.1     1  LIG1       -0.1139
     13 H           3.3217    0.3424   -0.0021 H       1  LIG1        0.1232
     14 C          -1.0166    1.8536    0.0014 C.ar    1  LIG1        0.0318
     15 C           0.1958    2.5069    0.0015 C.ar    1  LIG1       -0.0191
     16 C           0.0263    3.9290    0.0017 C.ar    1  LIG1        0.0435
     17 C          -1.3057    4.2790    0.0026 C.ar    1  LIG1        0.0424
     18 S          -2.2953    2.9311    0.0023 S.2     1  LIG1       -0.0856
     19 C           1.3613    1.9304    0.0013 C.3     1  LIG1       -0.0374
     20 H           2.0684    2.5552    0.5056 H       1  LIG1        0.0278
     21 H           1.6808    1.7723   -1.0077 H       1  LIG1        0.0278
     22 H           1.2936    0.9891    0.5055 H       1  LIG1        0.0278
     23 C           1.0233    4.7632    0.0012 C.1     1  LIG1       -0.0682
     24 C           1.9446    5.5340    0.0007 C.1     1  LIG1       -0.1139
     25 H           2.7652    6.2207    0.0002 H       1  LIG1        0.1232
     26 C          -1.7708    5.4930    0.0035 C.ar    1  LIG1        0.0318
     27 C          -1.0136    6.6432    0.0227 C.ar    1  LIG1       -0.0191
     28 C          -1.8374    7.8147    0.0172 C.ar    1  LIG1        0.0435
     29 C          -3.1758    7.4910   -0.0051 C.ar    1  LIG1        0.0424
     30 S          -3.4074    5.8351   -0.0192 S.2     1  LIG1       -0.0856
     31 C           0.2858    6.6885    0.0432 C.3     1  LIG1       -0.0374
     32 H           0.6039    7.5737    0.5532 H       1  LIG1        0.0278
     33 H           0.6581    6.7015   -0.9599 H       1  LIG1        0.0278
     34 H           0.6646    5.8274    0.5531 H       1  LIG1        0.0278
     35 C          -1.3555    9.0220    0.0317 C.1     1  LIG1       -0.0682
     36 C          -0.9102   10.1376    0.0451 C.1     1  LIG1       -0.1139
     37 H          -0.5136   11.1313    0.0570 H       1  LIG1        0.1232
     38 C          -4.1610    8.3391   -0.0144 C.ar    1  LIG1        0.0312
     39 C          -4.0399    9.7110   -0.0205 C.ar    1  LIG1       -0.0198
     40 C          -5.3208   10.3515   -0.0311 C.ar    1  LIG1        0.0352
     41 C          -6.3457    9.4315   -0.0316 C.ar    1  LIG1       -0.0081
     42 S          -5.7642    7.8638   -0.0205 S.2     1  LIG1       -0.0946
     43 H          -7.6153    9.7107   -0.0396 H       1  LIG1        0.0706
     44 C          -2.9174   10.3673   -0.0175 C.3     1  LIG1       -0.0374
     45 H          -3.0514   11.3010    0.4878 H       1  LIG1        0.0278
     46 H          -2.6075   10.5486   -1.0255 H       1  LIG1        0.0278
     47 H          -2.1695    9.7925    0.4877 H       1  LIG1        0.0278
     48 C          -5.4692   11.6430   -0.0391 C.1     1  LIG1       -0.0688
     49 C          -5.6063   12.8363   -0.0464 C.1     1  LIG1       -0.1139
     50 H          -5.7284   13.8993   -0.0530 H       1  LIG1        0.1232
@<TRIPOS>BOND
     1    46    44    1
     2     9     7    1
     3    21    19    1
     4    33    31    1
     5    50    49    1
     6    49    48    3
     7    43    41    1
     8    48    40    1
     9    41    40   ar
    10    41    42   ar
    11    40    39   ar
    12    39    44    1
    13    39    38   ar
    14    42    38   ar
    15    30    29   ar
    16    30    26   ar
    17    44    47    1
    18    44    45    1
    19    38    29    1
    20    29    28   ar
    21    13    12    1
    22    12    11    3
    23    11     3    1
    24     6     1    1
    25     7     2    1
    26     7    10    1
    27     7     8    1
    28     1     2   ar
    29     1     5   ar
    30     2     3   ar
    31     3     4   ar
    32    25    24    1
    33     4     5   ar
    34     4    14    1
    35    24    23    3
    36    23    16    1
    37    19    15    1
    38    19    22    1
    39    19    20    1
    40    14    15   ar
    41    14    18   ar
    42    15    16   ar
    43    16    17   ar
    44    18    17   ar
    45    17    26    1
    46    26    27   ar
    47    28    27   ar
    48    28    35    1
    49    27    31    1
    50    35    36    3
    51    31    34    1
    52    31    32    1
    53    36    37    1
