@<TRIPOS>MOLECULE
mol_data/noopt/geoms/mol2/5ie5ie.out
 26 27 0 0 0
SMALL
GASTEIGER

@<TRIPOS>ATOM
      1 C          -2.0792   -1.7080   -0.0002 C.ar    1  LIG1       -0.0196
      2 C          -0.7020   -1.7080   -0.0002 C.ar    1  LIG1       -0.0274
      3 C          -0.1766   -0.3757   -0.0002 C.ar    1  LIG1        0.0428
      4 C          -1.1831    0.5643    0.0006 C.ar    1  LIG1        0.0418
      5 S          -2.6937   -0.1528    0.0006 S.2     1  LIG1       -0.0946
      6 H          -2.8374   -2.7640   -0.0008 H       1  LIG1        0.0696
      7 C           0.0505   -2.7685   -0.0004 C.3     1  LIG1       -0.0380
      8 H           0.9694   -2.5538    0.5040 H       1  LIG1        0.0278
      9 H           0.2569   -3.0592   -1.0093 H       1  LIG1        0.0278
     10 H          -0.4556   -3.5650    0.5039 H       1  LIG1        0.0278
     11 C           1.0969   -0.1143   -0.0009 C.1     1  LIG1       -0.0682
     12 C           2.2735    0.1272   -0.0015 C.1     1  LIG1       -0.1139
     13 H           3.3217    0.3424   -0.0021 H       1  LIG1        0.1232
     14 C          -1.0166    1.8536    0.0014 C.ar    1  LIG1        0.0312
     15 C           0.1956    2.5069    0.0205 C.ar    1  LIG1       -0.0198
     16 C           0.0262    3.9290    0.0147 C.ar    1  LIG1        0.0352
     17 C          -1.3056    4.2790   -0.0075 C.ar    1  LIG1       -0.0081
     18 S          -2.2951    2.9311   -0.0215 S.2     1  LIG1       -0.0946
     19 H          -1.7706    5.4930   -0.0170 H       1  LIG1        0.0706
     20 C           1.3609    1.9304    0.0410 C.3     1  LIG1       -0.0374
     21 H           2.0609    2.5588    0.5510 H       1  LIG1        0.0278
     22 H           1.6949    1.7652   -0.9621 H       1  LIG1        0.0278
     23 H           1.2860    0.9927    0.5509 H       1  LIG1        0.0278
     24 C           1.0231    4.7632    0.0291 C.1     1  LIG1       -0.0688
     25 C           1.9443    5.5341    0.0424 C.1     1  LIG1       -0.1139
     26 H           2.7648    6.2207    0.0542 H       1  LIG1        0.1232
@<TRIPOS>BOND
     1     9     7    1
     2    22    20    1
     3    18    17   ar
     4    18    14   ar
     5    19    17    1
     6    17    16   ar
     7    13    12    1
     8    12    11    3
     9    11     3    1
    10     6     1    1
    11     7     2    1
    12     7    10    1
    13     7     8    1
    14     2     3   ar
    15     2     1   ar
    16     3     4   ar
    17     1     5   ar
    18     4     5   ar
    19     4    14    1
    20    14    15   ar
    21    16    15   ar
    22    16    24    1
    23    15    20    1
    24    24    25    3
    25    20    23    1
    26    20    21    1
    27    25    26    1
