@<TRIPOS>MOLECULE
mol_data/noopt/geoms/mol2/5ie5ie5ie5ie-.out
 50 53 0 0 0
SMALL
GASTEIGER

@<TRIPOS>ATOM
      1 C          -2.0792   -1.7080   -0.0002 C.ar    1  LIG1       -0.0196
      2 C          -0.7020   -1.7080   -0.0002 C.ar    1  LIG1       -0.0274
      3 C          -0.1766   -0.3757   -0.0002 C.ar    1  LIG1        0.0428
      4 C          -1.1831    0.5643    0.0006 C.ar    1  LIG1        0.0418
      5 S          -2.6937   -0.1528    0.0006 S.2     1  LIG1       -0.0946
      6 H          -2.8374   -2.7640   -0.0008 H       1  LIG1        0.0696
      7 C           0.0505   -2.7685   -0.0004 C.3     1  LIG1       -0.0380
      8 H           0.9694   -2.5538    0.5040 H       1  LIG1        0.0278
      9 H           0.2569   -3.0592   -1.0093 H       1  LIG1        0.0278
     10 H          -0.4556   -3.5650    0.5039 H       1  LIG1        0.0278
     11 C           1.0969   -0.1143   -0.0009 C.1     1  LIG1       -0.0682
     12 C           2.2735    0.1272   -0.0015 C.1     1  LIG1       -0.1139
     13 H           3.3217    0.3424   -0.0021 H       1  LIG1        0.1232
     14 C          -1.0166    1.8536    0.0014 C.ar    1  LIG1        0.0318
     15 C           0.1956    2.5069    0.0205 C.ar    1  LIG1       -0.0191
     16 C           0.0262    3.9290    0.0147 C.ar    1  LIG1        0.0435
     17 C          -1.3056    4.2790   -0.0075 C.ar    1  LIG1        0.0424
     18 S          -2.2951    2.9311   -0.0215 S.2     1  LIG1       -0.0856
     19 C           1.3609    1.9304    0.0410 C.3     1  LIG1       -0.0374
     20 H           2.0609    2.5588    0.5510 H       1  LIG1        0.0278
     21 H           1.6949    1.7652   -0.9621 H       1  LIG1        0.0278
     22 H           1.2860    0.9927    0.5509 H       1  LIG1        0.0278
     23 C           1.0231    4.7632    0.0291 C.1     1  LIG1       -0.0682
     24 C           1.9443    5.5341    0.0424 C.1     1  LIG1       -0.1139
     25 H           2.7648    6.2207    0.0542 H       1  LIG1        0.1232
     26 C          -1.7706    5.4930   -0.0170 C.ar    1  LIG1        0.0318
     27 C          -1.0132    6.6432   -0.0232 C.ar    1  LIG1       -0.0191
     28 C          -1.8369    7.8147   -0.0340 C.ar    1  LIG1        0.0435
     29 C          -3.1756    7.4910   -0.0345 C.ar    1  LIG1        0.0424
     30 S          -3.4074    5.8350   -0.0232 S.2     1  LIG1       -0.0856
     31 C           0.2863    6.6885   -0.0202 C.3     1  LIG1       -0.0374
     32 H           0.6112    7.5740    0.4851 H       1  LIG1        0.0278
     33 H           0.6452    6.7010   -1.0282 H       1  LIG1        0.0278
     34 H           0.6720    5.8277    0.4850 H       1  LIG1        0.0278
     35 C          -1.3549    9.0220   -0.0421 C.1     1  LIG1       -0.0682
     36 C          -0.9095   10.1375   -0.0495 C.1     1  LIG1       -0.1139
     37 H          -0.5127   11.1312   -0.0562 H       1  LIG1        0.1232
     38 C          -4.1608    8.3391   -0.0426 C.ar    1  LIG1        0.0312
     39 C          -4.0397    9.7110   -0.0479 C.ar    1  LIG1       -0.0198
     40 C          -5.3206   10.3514   -0.0572 C.ar    1  LIG1        0.0352
     41 C          -6.3455    9.4315   -0.0576 C.ar    1  LIG1       -0.0081
     42 S          -5.7640    7.8637   -0.0478 S.2     1  LIG1       -0.0946
     43 H          -7.6151    9.7107   -0.0644 H       1  LIG1        0.0706
     44 C          -2.9172   10.3673   -0.0453 C.3     1  LIG1       -0.0374
     45 H          -3.0511   11.3010    0.4598 H       1  LIG1        0.0278
     46 H          -2.6075   10.5484   -1.0535 H       1  LIG1        0.0278
     47 H          -2.1692    9.7926    0.4598 H       1  LIG1        0.0278
     48 C          -5.4690   11.6429   -0.0642 C.1     1  LIG1       -0.0688
     49 C          -5.6061   12.8363   -0.0708 C.1     1  LIG1       -0.1139
     50 H          -5.7283   13.8993   -0.0766 H       1  LIG1        0.1232
@<TRIPOS>BOND
     1    46    44    1
     2    33    31    1
     3     9     7    1
     4    21    19    1
     5    50    49    1
     6    49    48    3
     7    43    41    1
     8    48    40    1
     9    41    40   ar
    10    41    42   ar
    11    40    39   ar
    12    37    36    1
    13    36    35    3
    14    39    44    1
    15    39    38   ar
    16    42    38   ar
    17    44    47    1
    18    44    45    1
    19    38    29    1
    20    35    28    1
    21    29    28   ar
    22    29    30   ar
    23    28    27   ar
    24    27    31    1
    25    27    26   ar
    26    30    26   ar
    27    18    17   ar
    28    18    14   ar
    29    31    34    1
    30    31    32    1
    31    26    17    1
    32    17    16   ar
    33    13    12    1
    34    12    11    3
    35    11     3    1
    36     6     1    1
    37     7     2    1
    38     7    10    1
    39     7     8    1
    40     2     3   ar
    41     2     1   ar
    42     3     4   ar
    43     1     5   ar
    44     4     5   ar
    45     4    14    1
    46    14    15   ar
    47    16    15   ar
    48    16    23    1
    49    15    19    1
    50    23    24    3
    51    19    22    1
    52    19    20    1
    53    24    25    1
