@<TRIPOS>MOLECULE
mol_data/noopt/geoms/mol2/5ie5ie5ie-5ie.out
 50 53 0 0 0
SMALL
GASTEIGER

@<TRIPOS>ATOM
      1 C          -2.0792   -1.7080   -0.0002 C.ar    1  LIG1       -0.0196
      2 C          -0.7020   -1.7080   -0.0002 C.ar    1  LIG1       -0.0274
      3 C          -0.1766   -0.3757   -0.0002 C.ar    1  LIG1        0.0428
      4 C          -1.1831    0.5643    0.0006 C.ar    1  LIG1        0.0418
      5 S          -2.6937   -0.1528    0.0006 S.2     1  LIG1       -0.0946
      6 H          -2.8374   -2.7640   -0.0008 H       1  LIG1        0.0696
      7 C           0.0505   -2.7685   -0.0004 C.3     1  LIG1       -0.0380
      8 H           0.9694   -2.5538    0.5040 H       1  LIG1        0.0278
      9 H           0.2569   -3.0592   -1.0093 H       1  LIG1        0.0278
     10 H          -0.4556   -3.5650    0.5039 H       1  LIG1        0.0278
     11 C           1.0969   -0.1143   -0.0009 C.1     1  LIG1       -0.0682
     12 C           2.2735    0.1272   -0.0015 C.1     1  LIG1       -0.1139
     13 H           3.3217    0.3424   -0.0021 H       1  LIG1        0.1232
     14 C          -1.0166    1.8536    0.0014 C.ar    1  LIG1        0.0318
     15 C           0.1956    2.5069    0.0205 C.ar    1  LIG1       -0.0191
     16 C           0.0262    3.9290    0.0147 C.ar    1  LIG1        0.0435
     17 C          -1.3056    4.2790   -0.0075 C.ar    1  LIG1        0.0424
     18 S          -2.2951    2.9311   -0.0215 S.2     1  LIG1       -0.0856
     19 C           1.3609    1.9304    0.0410 C.3     1  LIG1       -0.0374
     20 H           2.0609    2.5588    0.5510 H       1  LIG1        0.0278
     21 H           1.6949    1.7652   -0.9621 H       1  LIG1        0.0278
     22 H           1.2860    0.9927    0.5509 H       1  LIG1        0.0278
     23 C           1.0231    4.7632    0.0291 C.1     1  LIG1       -0.0682
     24 C           1.9443    5.5341    0.0424 C.1     1  LIG1       -0.1139
     25 H           2.7648    6.2207    0.0542 H       1  LIG1        0.1232
     26 C          -1.7706    5.4930   -0.0170 C.ar    1  LIG1        0.0318
     27 C          -1.0134    6.6433   -0.0043 C.ar    1  LIG1       -0.0191
     28 C          -1.8371    7.8147   -0.0210 C.ar    1  LIG1        0.0435
     29 C          -3.1754    7.4910   -0.0446 C.ar    1  LIG1        0.0424
     30 S          -3.4072    5.8350   -0.0470 S.2     1  LIG1       -0.0856
     31 C           0.2859    6.6886    0.0196 C.3     1  LIG1       -0.0374
     32 H           0.6026    7.5738    0.5305 H       1  LIG1        0.0278
     33 H           0.6609    6.7018   -0.9825 H       1  LIG1        0.0278
     34 H           0.6635    5.8276    0.5304 H       1  LIG1        0.0278
     35 C          -1.3552    9.0221   -0.0141 C.1     1  LIG1       -0.0682
     36 C          -0.9099   10.1377   -0.0078 C.1     1  LIG1       -0.1139
     37 H          -0.5132   11.1314   -0.0022 H       1  LIG1        0.1232
     38 C          -4.1606    8.3390   -0.0631 C.ar    1  LIG1        0.0312
     39 C          -4.0397    9.7109   -0.0560 C.ar    1  LIG1       -0.0198
     40 C          -5.3204   10.3513   -0.0823 C.ar    1  LIG1        0.0352
     41 C          -6.3449    9.4313   -0.1072 C.ar    1  LIG1       -0.0081
     42 S          -5.7633    7.8636   -0.0994 S.2     1  LIG1       -0.0946
     43 H          -7.6143    9.7105   -0.1337 H       1  LIG1        0.0706
     44 C          -2.9175   10.3673   -0.0292 C.3     1  LIG1       -0.0374
     45 H          -3.0598   11.2962    0.4825 H       1  LIG1        0.0278
     46 H          -2.5918   10.5579   -1.0305 H       1  LIG1        0.0278
     47 H          -2.1776    9.7879    0.4824 H       1  LIG1        0.0278
     48 C          -5.4689   11.6428   -0.0821 C.1     1  LIG1       -0.0688
     49 C          -5.6062   12.8362   -0.0819 C.1     1  LIG1       -0.1139
     50 H          -5.7284   13.8991   -0.0818 H       1  LIG1        0.1232
@<TRIPOS>BOND
     1    46    44    1
     2     9     7    1
     3    33    31    1
     4    21    19    1
     5    43    41    1
     6    41    42   ar
     7    41    40   ar
     8    42    38   ar
     9    40    48    1
    10    40    39   ar
    11    48    49    3
    12    49    50    1
    13    38    39   ar
    14    38    29    1
    15    39    44    1
    16    30    29   ar
    17    30    26   ar
    18    29    28   ar
    19    44    47    1
    20    44    45    1
    21    18    17   ar
    22    18    14   ar
    23    28    35    1
    24    28    27   ar
    25    26    17    1
    26    26    27   ar
    27    35    36    3
    28    36    37    1
    29    17    16   ar
    30    27    31    1
    31    13    12    1
    32    12    11    3
    33    11     3    1
    34     6     1    1
    35     7     2    1
    36     7    10    1
    37     7     8    1
    38     2     3   ar
    39     2     1   ar
    40     3     4   ar
    41     1     5   ar
    42     4     5   ar
    43     4    14    1
    44    14    15   ar
    45    16    15   ar
    46    16    23    1
    47    31    34    1
    48    31    32    1
    49    15    19    1
    50    23    24    3
    51    19    22    1
    52    19    20    1
    53    24    25    1
