@<TRIPOS>MOLECULE
mol_data/noopt/geoms/mol2/5ie5ie-5ie-.out
 38 40 0 0 0
SMALL
GASTEIGER

@<TRIPOS>ATOM
      1 C          -2.0792   -1.7080   -0.0002 C.ar    1  LIG1       -0.0196
      2 C          -0.7020   -1.7080   -0.0002 C.ar    1  LIG1       -0.0274
      3 C          -0.1766   -0.3757   -0.0002 C.ar    1  LIG1        0.0428
      4 C          -1.1831    0.5643    0.0006 C.ar    1  LIG1        0.0418
      5 S          -2.6937   -0.1528    0.0006 S.2     1  LIG1       -0.0946
      6 H          -2.8374   -2.7640   -0.0008 H       1  LIG1        0.0696
      7 C           0.0505   -2.7685   -0.0004 C.3     1  LIG1       -0.0380
      8 H           0.9694   -2.5538    0.5040 H       1  LIG1        0.0278
      9 H           0.2569   -3.0592   -1.0093 H       1  LIG1        0.0278
     10 H          -0.4556   -3.5650    0.5039 H       1  LIG1        0.0278
     11 C           1.0969   -0.1143   -0.0009 C.1     1  LIG1       -0.0682
     12 C           2.2735    0.1272   -0.0015 C.1     1  LIG1       -0.1139
     13 H           3.3217    0.3424   -0.0021 H       1  LIG1        0.1232
     14 C          -1.0166    1.8536    0.0014 C.ar    1  LIG1        0.0318
     15 C           0.1958    2.5069    0.0015 C.ar    1  LIG1       -0.0191
     16 C           0.0263    3.9290    0.0017 C.ar    1  LIG1        0.0435
     17 C          -1.3057    4.2790    0.0026 C.ar    1  LIG1        0.0424
     18 S          -2.2953    2.9311    0.0023 S.2     1  LIG1       -0.0856
     19 C           1.3613    1.9304    0.0013 C.3     1  LIG1       -0.0374
     20 H           2.0684    2.5552    0.5056 H       1  LIG1        0.0278
     21 H           1.6808    1.7723   -1.0077 H       1  LIG1        0.0278
     22 H           1.2936    0.9891    0.5055 H       1  LIG1        0.0278
     23 C           1.0233    4.7632    0.0012 C.1     1  LIG1       -0.0682
     24 C           1.9446    5.5340    0.0007 C.1     1  LIG1       -0.1139
     25 H           2.7652    6.2207    0.0002 H       1  LIG1        0.1232
     26 C          -1.7708    5.4930    0.0035 C.ar    1  LIG1        0.0312
     27 C          -1.0136    6.6432    0.0227 C.ar    1  LIG1       -0.0198
     28 C          -1.8374    7.8147    0.0172 C.ar    1  LIG1        0.0352
     29 C          -3.1758    7.4910   -0.0051 C.ar    1  LIG1       -0.0081
     30 S          -3.4074    5.8351   -0.0192 S.2     1  LIG1       -0.0946
     31 H          -4.1610    8.3391   -0.0144 H       1  LIG1        0.0706
     32 C           0.2858    6.6885    0.0432 C.3     1  LIG1       -0.0374
     33 H           0.6039    7.5737    0.5532 H       1  LIG1        0.0278
     34 H           0.6581    6.7015   -0.9599 H       1  LIG1        0.0278
     35 H           0.6646    5.8274    0.5531 H       1  LIG1        0.0278
     36 C          -1.3555    9.0220    0.0317 C.1     1  LIG1       -0.0688
     37 C          -0.9102   10.1376    0.0451 C.1     1  LIG1       -0.1139
     38 H          -0.5136   11.1313    0.0570 H       1  LIG1        0.1232
@<TRIPOS>BOND
     1     9     7    1
     2    21    19    1
     3    34    32    1
     4    30    29   ar
     5    30    26   ar
     6    31    29    1
     7    29    28   ar
     8    13    12    1
     9    12    11    3
    10    11     3    1
    11     6     1    1
    12     7     2    1
    13     7    10    1
    14     7     8    1
    15     2     3   ar
    16     2     1   ar
    17     3     4   ar
    18     1     5   ar
    19    25    24    1
    20     5     4   ar
    21     4    14    1
    22    24    23    3
    23    23    16    1
    24    19    15    1
    25    19    22    1
    26    19    20    1
    27    14    15   ar
    28    14    18   ar
    29    15    16   ar
    30    16    17   ar
    31    18    17   ar
    32    17    26    1
    33    26    27   ar
    34    28    27   ar
    35    28    36    1
    36    27    32    1
    37    36    37    3
    38    32    35    1
    39    32    33    1
    40    37    38    1
