@<TRIPOS>MOLECULE
mol_data/noopt/geoms/mol2/5ie5ie-5ie5ie-.out
 50 53 0 0 0
SMALL
GASTEIGER

@<TRIPOS>ATOM
      1 C          -2.0792   -1.7080   -0.0002 C.ar    1  LIG1       -0.0196
      2 C          -0.7020   -1.7080   -0.0002 C.ar    1  LIG1       -0.0274
      3 C          -0.1766   -0.3757   -0.0002 C.ar    1  LIG1        0.0428
      4 C          -1.1831    0.5643    0.0006 C.ar    1  LIG1        0.0418
      5 S          -2.6937   -0.1528    0.0006 S.2     1  LIG1       -0.0946
      6 H          -2.8374   -2.7640   -0.0008 H       1  LIG1        0.0696
      7 C           0.0505   -2.7685   -0.0004 C.3     1  LIG1       -0.0380
      8 H           0.9694   -2.5538    0.5040 H       1  LIG1        0.0278
      9 H           0.2569   -3.0592   -1.0093 H       1  LIG1        0.0278
     10 H          -0.4556   -3.5650    0.5039 H       1  LIG1        0.0278
     11 C           1.0969   -0.1143   -0.0009 C.1     1  LIG1       -0.0682
     12 C           2.2735    0.1272   -0.0015 C.1     1  LIG1       -0.1139
     13 H           3.3217    0.3424   -0.0021 H       1  LIG1        0.1232
     14 C          -1.0166    1.8536    0.0014 C.ar    1  LIG1        0.0318
     15 C           0.1958    2.5069    0.0015 C.ar    1  LIG1       -0.0191
     16 C           0.0263    3.9290    0.0017 C.ar    1  LIG1        0.0435
     17 C          -1.3057    4.2790    0.0026 C.ar    1  LIG1        0.0424
     18 S          -2.2953    2.9311    0.0023 S.2     1  LIG1       -0.0856
     19 C           1.3613    1.9304    0.0013 C.3     1  LIG1       -0.0374
     20 H           2.0684    2.5552    0.5056 H       1  LIG1        0.0278
     21 H           1.6808    1.7723   -1.0077 H       1  LIG1        0.0278
     22 H           1.2936    0.9891    0.5055 H       1  LIG1        0.0278
     23 C           1.0233    4.7632    0.0012 C.1     1  LIG1       -0.0682
     24 C           1.9446    5.5340    0.0007 C.1     1  LIG1       -0.1139
     25 H           2.7652    6.2207    0.0002 H       1  LIG1        0.1232
     26 C          -1.7708    5.4930    0.0035 C.ar    1  LIG1        0.0318
     27 C          -1.0134    6.6433    0.0038 C.ar    1  LIG1       -0.0191
     28 C          -1.8373    7.8147    0.0042 C.ar    1  LIG1        0.0435
     29 C          -3.1759    7.4910    0.0050 C.ar    1  LIG1        0.0424
     30 S          -3.4076    5.8350    0.0046 S.2     1  LIG1       -0.0856
     31 C           0.2861    6.6886    0.0034 C.3     1  LIG1       -0.0374
     32 H           0.6122    7.5742    0.5078 H       1  LIG1        0.0278
     33 H           0.6423    6.7011   -1.0055 H       1  LIG1        0.0278
     34 H           0.6731    5.8279    0.5077 H       1  LIG1        0.0278
     35 C          -1.3553    9.0221    0.0038 C.1     1  LIG1       -0.0682
     36 C          -0.9100   10.1377    0.0034 C.1     1  LIG1       -0.1139
     37 H          -0.5133   11.1315    0.0030 H       1  LIG1        0.1232
     38 C          -4.1612    8.3391    0.0062 C.ar    1  LIG1        0.0312
     39 C          -4.0401    9.7109    0.0065 C.ar    1  LIG1       -0.0198
     40 C          -5.3211   10.3514    0.0071 C.ar    1  LIG1        0.0352
     41 C          -6.3459    9.4314    0.0079 C.ar    1  LIG1       -0.0081
     42 S          -5.7643    7.8636    0.0073 S.2     1  LIG1       -0.0946
     43 H          -7.6156    9.7105    0.0092 H       1  LIG1        0.0706
     44 C          -2.9177   10.3673    0.0061 C.3     1  LIG1       -0.0374
     45 H          -3.0506   11.3016    0.5104 H       1  LIG1        0.0278
     46 H          -2.6100   10.5473   -1.0028 H       1  LIG1        0.0278
     47 H          -2.1686    9.7932    0.5104 H       1  LIG1        0.0278
     48 C          -5.4696   11.6429    0.0067 C.1     1  LIG1       -0.0688
     49 C          -5.6068   12.8362    0.0065 C.1     1  LIG1       -0.1139
     50 H          -5.7290   13.8992    0.0062 H       1  LIG1        0.1232
@<TRIPOS>BOND
     1     9     7    1
     2    21    19    1
     3    33    31    1
     4    46    44    1
     5    13    12    1
     6    12    11    3
     7    11     3    1
     8     6     1    1
     9     7     2    1
    10     7    10    1
    11     7     8    1
    12     1     2   ar
    13     1     5   ar
    14     3     2   ar
    15     3     4   ar
    16    25    24    1
    17     5     4   ar
    18     4    14    1
    19    24    23    3
    20    23    16    1
    21    19    15    1
    22    19    22    1
    23    19    20    1
    24    14    15   ar
    25    14    18   ar
    26    15    16   ar
    27    16    17   ar
    28    18    17   ar
    29    17    26    1
    30    37    36    1
    31    36    35    3
    32    31    27    1
    33    31    34    1
    34    31    32    1
    35    26    27   ar
    36    26    30   ar
    37    35    28    1
    38    27    28   ar
    39    28    29   ar
    40    30    29   ar
    41    29    38    1
    42    44    39    1
    43    44    47    1
    44    44    45    1
    45    38    39   ar
    46    38    42   ar
    47    50    49    1
    48    49    48    3
    49    39    40   ar
    50    48    40    1
    51    40    41   ar
    52    42    41   ar
    53    41    43    1
