@<TRIPOS>MOLECULE
mol_data/noopt/geoms/mol2/5if5if-5if.out
 35 35 0 0 0
SMALL
GASTEIGER

@<TRIPOS>ATOM
      1 C          -2.0792   -1.7080   -0.0002 C.ar    1  LIG1       -0.0202
      2 C          -0.7020   -1.7080   -0.0002 C.ar    1  LIG1       -0.0351
      3 C          -0.1766   -0.3757   -0.0002 C.ar    1  LIG1        0.0017
      4 C          -1.1831    0.5643    0.0006 C.ar    1  LIG1        0.0342
      5 S          -2.6937   -0.1528    0.0006 S.2     1  LIG1       -0.0952
      6 H          -2.8374   -2.7640   -0.0008 H       1  LIG1        0.0696
      7 C           0.0505   -2.7685   -0.0004 C.3     1  LIG1       -0.0386
      8 H           0.9694   -2.5538    0.5040 H       1  LIG1        0.0278
      9 H           0.2569   -3.0592   -1.0093 H       1  LIG1        0.0278
     10 H          -0.4556   -3.5650    0.5039 H       1  LIG1        0.0278
     11 O           1.0969   -0.1143   -0.0009 O.3     2  HOH2       -0.2528
     12 H           1.2288    0.8366   -0.0011 H       0  HOH0        0.2528
     13 C          -1.0166    1.8536    0.0014 C.ar    1  LIG1        0.0306
     14 C           0.1958    2.5069    0.0015 C.ar    1  LIG1       -0.0268
     15 C           0.0263    3.9290    0.0017 C.ar    1  LIG1        0.0023
     16 C          -1.3057    4.2790    0.0026 C.ar    1  LIG1        0.0349
     17 S          -2.2953    2.9311    0.0023 S.2     1  LIG1       -0.0863
     18 C           1.3613    1.9304    0.0013 C.3     1  LIG1       -0.0380
     19 H           2.0684    2.5552    0.5056 H       1  LIG1        0.0278
     20 H           1.6808    1.7723   -1.0077 H       1  LIG1        0.0278
     21 H           1.2936    0.9891    0.5055 H       1  LIG1        0.0278
     22 O           1.0233    4.7633    0.0012 O.3     3  HOH3       -0.2528
     23 H           0.6884    5.6629    0.0010 H       0  HOH0        0.2528
     24 C          -1.7708    5.4930    0.0035 C.ar    1  LIG1        0.0330
     25 C          -1.0134    6.6433    0.0038 C.ar    1  LIG1        0.0063
     26 C          -1.8373    7.8147    0.0042 C.ar    1  LIG1        0.1273
     27 C          -3.1759    7.4910    0.0050 C.ar    1  LIG1        0.0180
     28 S          -3.4076    5.8350    0.0046 S.2     1  LIG1       -0.0921
     29 H          -4.1612    8.3391    0.0062 H       1  LIG1        0.0730
     30 C           0.2861    6.6886    0.0034 C.3     1  LIG1       -0.0351
     31 H           0.6122    7.5742    0.5078 H       1  LIG1        0.0279
     32 H           0.6423    6.7011   -1.0055 H       1  LIG1        0.0279
     33 H           0.6731    5.8279    0.5077 H       1  LIG1        0.0279
     34 O          -1.3553    9.0221    0.0038 O.3     1  LIG1       -0.5060
     35 H          -2.0770    9.6552    0.0036 H       1  LIG1        0.2922
@<TRIPOS>BOND
     1     9     7    1
     2    20    18    1
     3    32    30    1
     4    12    11    1
     5     6     1    1
     6     7     2    1
     7     7    10    1
     8     7     8    1
     9     2     3   ar
    10     2     1   ar
    11     3     4   ar
    12     1     5   ar
    13     4     5   ar
    14     4    13    1
    15    23    22    1
    16    18    14    1
    17    18    21    1
    18    18    19    1
    19    13    14   ar
    20    13    17   ar
    21    14    15   ar
    22    15    16   ar
    23    17    16   ar
    24    16    24    1
    25    30    25    1
    26    30    33    1
    27    30    31    1
    28    24    25   ar
    29    24    28   ar
    30    35    34    1
    31    34    26    1
    32    25    26   ar
    33    26    27   ar
    34    28    27   ar
    35    27    29    1
