@<TRIPOS>MOLECULE
mol_data/noopt/geoms/mol2/5if5if-5if5if-.out
 46 46 0 0 0
SMALL
GASTEIGER

@<TRIPOS>ATOM
      1 C          -2.0792   -1.7080   -0.0002 C.ar    1  LIG1       -0.0202
      2 C          -0.7020   -1.7080   -0.0002 C.ar    1  LIG1       -0.0351
      3 C          -0.1766   -0.3757   -0.0002 C.ar    1  LIG1        0.0017
      4 C          -1.1831    0.5643    0.0006 C.ar    1  LIG1        0.0342
      5 S          -2.6937   -0.1528    0.0006 S.2     1  LIG1       -0.0952
      6 H          -2.8374   -2.7640   -0.0008 H       1  LIG1        0.0696
      7 C           0.0505   -2.7685   -0.0004 C.3     1  LIG1       -0.0386
      8 H           0.9694   -2.5538    0.5040 H       1  LIG1        0.0278
      9 H           0.2569   -3.0592   -1.0093 H       1  LIG1        0.0278
     10 H          -0.4556   -3.5650    0.5039 H       1  LIG1        0.0278
     11 O           1.0969   -0.1143   -0.0009 O.3     2  HOH2       -0.2528
     12 H           1.2288    0.8366   -0.0011 H       0  HOH0        0.2528
     13 C          -1.0166    1.8536    0.0014 C.ar    1  LIG1        0.0306
     14 C           0.1958    2.5069    0.0015 C.ar    1  LIG1       -0.0268
     15 C           0.0263    3.9290    0.0017 C.ar    1  LIG1        0.0023
     16 C          -1.3057    4.2790    0.0026 C.ar    1  LIG1        0.0348
     17 S          -2.2953    2.9311    0.0023 S.2     1  LIG1       -0.0863
     18 C           1.3613    1.9304    0.0013 C.3     1  LIG1       -0.0380
     19 H           2.0684    2.5552    0.5056 H       1  LIG1        0.0278
     20 H           1.6808    1.7723   -1.0077 H       1  LIG1        0.0278
     21 H           1.2936    0.9891    0.5055 H       1  LIG1        0.0278
     22 O           1.0233    4.7633    0.0012 O.3     3  HOH3       -0.2528
     23 H           0.6884    5.6629    0.0010 H       0  HOH0        0.2528
     24 C          -1.7708    5.4930    0.0035 C.ar    1  LIG1        0.0306
     25 C          -1.0134    6.6433    0.0038 C.ar    1  LIG1       -0.0268
     26 C          -1.8373    7.8147    0.0042 C.ar    1  LIG1        0.0023
     27 C          -3.1759    7.4910    0.0050 C.ar    1  LIG1        0.0349
     28 S          -3.4076    5.8350    0.0046 S.2     1  LIG1       -0.0863
     29 C           0.2861    6.6886    0.0034 C.3     1  LIG1       -0.0380
     30 H           0.6122    7.5742    0.5078 H       1  LIG1        0.0278
     31 H           0.6423    6.7011   -1.0055 H       1  LIG1        0.0278
     32 H           0.6731    5.8279    0.5077 H       1  LIG1        0.0278
     33 O          -1.3553    9.0221    0.0038 O.3     4  HOH4       -0.2528
     34 H          -2.0770    9.6552    0.0036 H       0  HOH0        0.2528
     35 C          -4.1612    8.3391    0.0062 C.ar    1  LIG1        0.0330
     36 C          -4.0401    9.7109    0.0065 C.ar    1  LIG1        0.0063
     37 C          -5.3211   10.3514    0.0071 C.ar    1  LIG1        0.1273
     38 C          -6.3459    9.4314    0.0079 C.ar    1  LIG1        0.0180
     39 S          -5.7643    7.8636    0.0073 S.2     1  LIG1       -0.0921
     40 H          -7.6156    9.7105    0.0092 H       1  LIG1        0.0730
     41 C          -2.9177   10.3673    0.0061 C.3     1  LIG1       -0.0351
     42 H          -3.0506   11.3016    0.5104 H       1  LIG1        0.0279
     43 H          -2.6100   10.5473   -1.0028 H       1  LIG1        0.0279
     44 H          -2.1686    9.7932    0.5104 H       1  LIG1        0.0279
     45 O          -5.4696   11.6429    0.0067 O.3     1  LIG1       -0.5060
     46 H          -6.4052   11.8579    0.0067 H       1  LIG1        0.2922
@<TRIPOS>BOND
     1     9     7    1
     2    20    18    1
     3    31    29    1
     4    43    41    1
     5    12    11    1
     6     6     1    1
     7     7     2    1
     8     7    10    1
     9     7     8    1
    10     2     3   ar
    11     2     1   ar
    12     3     4   ar
    13     1     5   ar
    14     4     5   ar
    15     4    13    1
    16    23    22    1
    17    18    14    1
    18    18    21    1
    19    18    19    1
    20    13    14   ar
    21    13    17   ar
    22    14    15   ar
    23    15    16   ar
    24    17    16   ar
    25    16    24    1
    26    29    25    1
    27    29    32    1
    28    29    30    1
    29    24    25   ar
    30    24    28   ar
    31    34    33    1
    32    25    26   ar
    33    26    27   ar
    34    28    27   ar
    35    27    35    1
    36    41    36    1
    37    41    44    1
    38    41    42    1
    39    35    36   ar
    40    35    39   ar
    41    36    37   ar
    42    46    45    1
    43    45    37    1
    44    37    38   ar
    45    39    38   ar
    46    38    40    1
