@<TRIPOS>MOLECULE
mol_data/noopt/geoms/mol2/5if5if.out
 24 24 0 0 0
SMALL
GASTEIGER

@<TRIPOS>ATOM
      1 C          -2.0792   -1.7080   -0.0002 C.ar    1  LIG1       -0.0202
      2 C          -0.7020   -1.7080   -0.0002 C.ar    1  LIG1       -0.0351
      3 C          -0.1766   -0.3757   -0.0002 C.ar    1  LIG1        0.0017
      4 C          -1.1831    0.5643    0.0006 C.ar    1  LIG1        0.0342
      5 S          -2.6937   -0.1528    0.0006 S.2     1  LIG1       -0.0952
      6 H          -2.8374   -2.7640   -0.0008 H       1  LIG1        0.0696
      7 C           0.0505   -2.7685   -0.0004 C.3     1  LIG1       -0.0386
      8 H           0.9694   -2.5538    0.5040 H       1  LIG1        0.0278
      9 H           0.2569   -3.0592   -1.0093 H       1  LIG1        0.0278
     10 H          -0.4556   -3.5650    0.5039 H       1  LIG1        0.0278
     11 O           1.0969   -0.1143   -0.0009 O.3     2  HOH2       -0.2528
     12 H           1.2288    0.8366   -0.0011 H       0  HOH0        0.2528
     13 C          -1.0166    1.8536    0.0014 C.ar    1  LIG1        0.0329
     14 C           0.1956    2.5069    0.0205 C.ar    1  LIG1        0.0063
     15 C           0.0262    3.9290    0.0147 C.ar    1  LIG1        0.1273
     16 C          -1.3056    4.2790   -0.0075 C.ar    1  LIG1        0.0180
     17 S          -2.2951    2.9311   -0.0215 S.2     1  LIG1       -0.0921
     18 H          -1.7706    5.4930   -0.0170 H       1  LIG1        0.0730
     19 C           1.3609    1.9304    0.0410 C.3     1  LIG1       -0.0351
     20 H           2.0609    2.5588    0.5510 H       1  LIG1        0.0279
     21 H           1.6949    1.7652   -0.9621 H       1  LIG1        0.0279
     22 H           1.2860    0.9927    0.5509 H       1  LIG1        0.0279
     23 O           1.0231    4.7633    0.0291 O.3     1  LIG1       -0.5060
     24 H           0.6881    5.6629    0.0327 H       1  LIG1        0.2922
@<TRIPOS>BOND
     1     9     7    1
     2    21    19    1
     3    17    16   ar
     4    17    13   ar
     5    18    16    1
     6    16    15   ar
     7    12    11    1
     8     6     1    1
     9     7     2    1
    10     7    10    1
    11     7     8    1
    12     2     3   ar
    13     2     1   ar
    14     3     4   ar
    15     1     5   ar
    16     4     5   ar
    17     4    13    1
    18    13    14   ar
    19    15    14   ar
    20    15    23    1
    21    14    19    1
    22    23    24    1
    23    19    22    1
    24    19    20    1
