@<TRIPOS>MOLECULE
mol_data/noopt/geoms/mol2/5if5if5if-5if.out
 46 46 0 0 0
SMALL
GASTEIGER

@<TRIPOS>ATOM
      1 C          -2.0792   -1.7080   -0.0002 C.ar    1  LIG1       -0.0202
      2 C          -0.7020   -1.7080   -0.0002 C.ar    1  LIG1       -0.0351
      3 C          -0.1766   -0.3757   -0.0002 C.ar    1  LIG1        0.0017
      4 C          -1.1831    0.5643    0.0006 C.ar    1  LIG1        0.0342
      5 S          -2.6937   -0.1528    0.0006 S.2     1  LIG1       -0.0952
      6 H          -2.8374   -2.7640   -0.0008 H       1  LIG1        0.0696
      7 C           0.0505   -2.7685   -0.0004 C.3     1  LIG1       -0.0386
      8 H           0.9694   -2.5538    0.5040 H       1  LIG1        0.0278
      9 H           0.2569   -3.0592   -1.0093 H       1  LIG1        0.0278
     10 H          -0.4556   -3.5650    0.5039 H       1  LIG1        0.0278
     11 O           1.0969   -0.1143   -0.0009 O.3     2  HOH2       -0.2528
     12 H           1.2288    0.8366   -0.0011 H       0  HOH0        0.2528
     13 C          -1.0166    1.8536    0.0014 C.ar    1  LIG1        0.0306
     14 C           0.1956    2.5069    0.0205 C.ar    1  LIG1       -0.0268
     15 C           0.0262    3.9290    0.0147 C.ar    1  LIG1        0.0023
     16 C          -1.3056    4.2790   -0.0075 C.ar    1  LIG1        0.0348
     17 S          -2.2951    2.9311   -0.0215 S.2     1  LIG1       -0.0863
     18 C           1.3609    1.9304    0.0410 C.3     1  LIG1       -0.0380
     19 H           2.0609    2.5588    0.5510 H       1  LIG1        0.0278
     20 H           1.6949    1.7652   -0.9621 H       1  LIG1        0.0278
     21 H           1.2860    0.9927    0.5509 H       1  LIG1        0.0278
     22 O           1.0231    4.7633    0.0291 O.3     3  HOH3       -0.2528
     23 H           0.6881    5.6629    0.0327 H       0  HOH0        0.2528
     24 C          -1.7706    5.4930   -0.0170 C.ar    1  LIG1        0.0306
     25 C          -1.0134    6.6433   -0.0043 C.ar    1  LIG1       -0.0268
     26 C          -1.8371    7.8147   -0.0210 C.ar    1  LIG1        0.0023
     27 C          -3.1754    7.4910   -0.0446 C.ar    1  LIG1        0.0349
     28 S          -3.4072    5.8350   -0.0470 S.2     1  LIG1       -0.0863
     29 C           0.2859    6.6886    0.0196 C.3     1  LIG1       -0.0380
     30 H           0.6026    7.5738    0.5305 H       1  LIG1        0.0278
     31 H           0.6609    6.7018   -0.9825 H       1  LIG1        0.0278
     32 H           0.6635    5.8276    0.5304 H       1  LIG1        0.0278
     33 O          -1.3551    9.0221   -0.0141 O.3     4  HOH4       -0.2528
     34 H          -2.0768    9.6552   -0.0124 H       0  HOH0        0.2528
     35 C          -4.1606    8.3390   -0.0631 C.ar    1  LIG1        0.0330
     36 C          -4.0397    9.7109   -0.0560 C.ar    1  LIG1        0.0063
     37 C          -5.3204   10.3513   -0.0823 C.ar    1  LIG1        0.1273
     38 C          -6.3449    9.4313   -0.1072 C.ar    1  LIG1        0.0180
     39 S          -5.7633    7.8636   -0.0994 S.2     1  LIG1       -0.0921
     40 H          -7.6143    9.7105   -0.1337 H       1  LIG1        0.0730
     41 C          -2.9175   10.3673   -0.0292 C.3     1  LIG1       -0.0351
     42 H          -3.0598   11.2962    0.4825 H       1  LIG1        0.0279
     43 H          -2.5918   10.5579   -1.0305 H       1  LIG1        0.0279
     44 H          -2.1776    9.7879    0.4824 H       1  LIG1        0.0279
     45 O          -5.4689   11.6429   -0.0821 O.3     1  LIG1       -0.5060
     46 H          -6.4046   11.8578   -0.0821 H       1  LIG1        0.2922
@<TRIPOS>BOND
     1    43    41    1
     2     9     7    1
     3    31    29    1
     4    20    18    1
     5    40    38    1
     6    38    39   ar
     7    38    37   ar
     8    39    35   ar
     9    37    45    1
    10    37    36   ar
    11    45    46    1
    12    35    36   ar
    13    35    27    1
    14    36    41    1
    15    28    27   ar
    16    28    24   ar
    17    27    26   ar
    18    41    44    1
    19    41    42    1
    20    17    16   ar
    21    17    13   ar
    22    26    25   ar
    23    24    16    1
    24    24    25   ar
    25    33    34    1
    26    16    15   ar
    27    25    29    1
    28    12    11    1
    29     6     1    1
    30     7     2    1
    31     7    10    1
    32     7     8    1
    33     2     3   ar
    34     2     1   ar
    35     3     4   ar
    36     1     5   ar
    37     4     5   ar
    38     4    13    1
    39    13    14   ar
    40    15    14   ar
    41    29    32    1
    42    29    30    1
    43    14    18    1
    44    22    23    1
    45    18    21    1
    46    18    19    1
