@<TRIPOS>MOLECULE
mol_data/noopt/geoms/mol2/5if5if-5if-.out
 35 35 0 0 0
SMALL
GASTEIGER

@<TRIPOS>ATOM
      1 C          -2.0792   -1.7080   -0.0002 C.ar    1  LIG1       -0.0202
      2 C          -0.7020   -1.7080   -0.0002 C.ar    1  LIG1       -0.0351
      3 C          -0.1766   -0.3757   -0.0002 C.ar    1  LIG1        0.0017
      4 C          -1.1831    0.5643    0.0006 C.ar    1  LIG1        0.0342
      5 S          -2.6937   -0.1528    0.0006 S.2     1  LIG1       -0.0952
      6 H          -2.8374   -2.7640   -0.0008 H       1  LIG1        0.0696
      7 C           0.0505   -2.7685   -0.0004 C.3     1  LIG1       -0.0386
      8 H           0.9694   -2.5538    0.5040 H       1  LIG1        0.0278
      9 H           0.2569   -3.0592   -1.0093 H       1  LIG1        0.0278
     10 H          -0.4556   -3.5650    0.5039 H       1  LIG1        0.0278
     11 O           1.0969   -0.1143   -0.0009 O.3     2  HOH2       -0.2528
     12 H           1.2288    0.8366   -0.0011 H       0  HOH0        0.2528
     13 C          -1.0166    1.8536    0.0014 C.ar    1  LIG1        0.0306
     14 C           0.1958    2.5069    0.0015 C.ar    1  LIG1       -0.0268
     15 C           0.0263    3.9290    0.0017 C.ar    1  LIG1        0.0023
     16 C          -1.3057    4.2790    0.0026 C.ar    1  LIG1        0.0349
     17 S          -2.2953    2.9311    0.0023 S.2     1  LIG1       -0.0863
     18 C           1.3613    1.9304    0.0013 C.3     1  LIG1       -0.0380
     19 H           2.0684    2.5552    0.5056 H       1  LIG1        0.0278
     20 H           1.6808    1.7723   -1.0077 H       1  LIG1        0.0278
     21 H           1.2936    0.9891    0.5055 H       1  LIG1        0.0278
     22 O           1.0233    4.7633    0.0012 O.3     3  HOH3       -0.2528
     23 H           0.6884    5.6629    0.0010 H       0  HOH0        0.2528
     24 C          -1.7708    5.4930    0.0035 C.ar    1  LIG1        0.0330
     25 C          -1.0136    6.6432    0.0227 C.ar    1  LIG1        0.0063
     26 C          -1.8374    7.8147    0.0172 C.ar    1  LIG1        0.1273
     27 C          -3.1758    7.4910   -0.0051 C.ar    1  LIG1        0.0180
     28 S          -3.4074    5.8351   -0.0192 S.2     1  LIG1       -0.0921
     29 H          -4.1610    8.3391   -0.0144 H       1  LIG1        0.0730
     30 C           0.2858    6.6885    0.0432 C.3     1  LIG1       -0.0351
     31 H           0.6039    7.5737    0.5532 H       1  LIG1        0.0279
     32 H           0.6581    6.7015   -0.9599 H       1  LIG1        0.0279
     33 H           0.6646    5.8274    0.5531 H       1  LIG1        0.0279
     34 O          -1.3555    9.0221    0.0317 O.3     1  LIG1       -0.5060
     35 H          -2.0772    9.6551    0.0353 H       1  LIG1        0.2922
@<TRIPOS>BOND
     1     9     7    1
     2    20    18    1
     3    32    30    1
     4    28    27   ar
     5    28    24   ar
     6    29    27    1
     7    27    26   ar
     8    12    11    1
     9     6     1    1
    10     7     2    1
    11     7    10    1
    12     7     8    1
    13     1     2   ar
    14     1     5   ar
    15     3     2   ar
    16     3     4   ar
    17     5     4   ar
    18     4    13    1
    19    23    22    1
    20    18    14    1
    21    18    21    1
    22    18    19    1
    23    13    14   ar
    24    13    17   ar
    25    14    15   ar
    26    15    16   ar
    27    17    16   ar
    28    16    24    1
    29    24    25   ar
    30    26    25   ar
    31    26    34    1
    32    25    30    1
    33    34    35    1
    34    30    33    1
    35    30    31    1
