@<TRIPOS>MOLECULE
mol_data/noopt/geoms/mol2/5ig5ig.out
 24 22 0 0 0
SMALL
GASTEIGER

@<TRIPOS>ATOM
      1 C          -2.0792   -1.7080   -0.0002 C.ar    1  LIG1       -0.0197
      2 C          -0.7020   -1.7080   -0.0002 C.ar    1  LIG1       -0.0297
      3 C          -0.1766   -0.3757   -0.0002 C.ar    1  LIG1        0.0230
      4 C          -1.1831    0.5643    0.0006 C.ar    1  LIG1        0.0399
      5 S          -2.6937   -0.1528    0.0006 S.2     1  LIG1       -0.0947
      6 H          -2.8374   -2.7640   -0.0008 H       1  LIG1        0.0696
      7 C           0.0505   -2.7685   -0.0004 C.3     1  LIG1       -0.0382
      8 H           0.9694   -2.5538    0.5040 H       1  LIG1        0.0278
      9 H           0.2569   -3.0592   -1.0093 H       1  LIG1        0.0278
     10 H          -0.4556   -3.5650    0.5039 H       1  LIG1        0.0278
     11 S           1.0968   -0.1143   -0.0009 S.3     1  LIG1       -0.1412
     12 H           1.2768    1.1833   -0.0011 H       1  LIG1        0.0309
     13 C          -1.0166    1.8536    0.0014 C.ar    1  LIG1        0.0358
     14 C           0.1956    2.5069    0.0205 C.ar    1  LIG1        0.0127
     15 C           0.0262    3.9290    0.0147 C.ar    1  LIG1        0.0202
     16 C          -1.3056    4.2790   -0.0075 C.ar    1  LIG1       -0.0099
     17 S          -2.2951    2.9311   -0.0215 S.2     1  LIG1       -0.0944
     18 H          -1.7706    5.4930   -0.0170 H       1  LIG1        0.0705
     19 C           1.3609    1.9304    0.0410 C.3     2  LIG2       -0.0309
     20 H           2.0609    2.5588    0.5510 H       3  UNK3        0.0000
     21 H           1.6949    1.7652   -0.9621 H       4  UNK4        0.0000
     22 H           1.2860    0.9927    0.5509 H       1  LIG1        0.1071
     23 S           1.0231    4.7632    0.0291 S.3     1  LIG1       -0.1415
     24 H           0.5659    5.9908    0.0339 H       1  LIG1        0.1071
@<TRIPOS>BOND
     1     9     7    1
     2    17    16   ar
     3    17    13   ar
     4    18    16    1
     5    16    15   ar
     6    12    19    1
     7    11     3    1
     8    11    22    1
     9     6     1    1
    10     7     2    1
    11     7    10    1
    12     7     8    1
    13     2     3   ar
    14     2     1   ar
    15     3     4   ar
    16     1     5   ar
    17     4     5   ar
    18     4    13    1
    19    13    14   ar
    20    15    14   ar
    21    15    23    1
    22    23    24    1
