@<TRIPOS>MOLECULE
mol_data/noopt/geoms/mol2/5ig5ig5ig-5ig.out
 46 40 0 0 0
SMALL
GASTEIGER

@<TRIPOS>ATOM
      1 C          -2.0792   -1.7080   -0.0002 C.ar    1  LIG1       -0.0197
      2 C          -0.7020   -1.7080   -0.0002 C.ar    1  LIG1       -0.0297
      3 C          -0.1766   -0.3757   -0.0002 C.ar    1  LIG1        0.0230
      4 C          -1.1831    0.5643    0.0006 C.ar    1  LIG1        0.0399
      5 S          -2.6937   -0.1528    0.0006 S.2     1  LIG1       -0.0947
      6 H          -2.8374   -2.7640   -0.0008 H       1  LIG1        0.0696
      7 C           0.0505   -2.7685   -0.0004 C.3     1  LIG1       -0.0382
      8 H           0.9694   -2.5538    0.5040 H       1  LIG1        0.0278
      9 H           0.2569   -3.0592   -1.0093 H       1  LIG1        0.0278
     10 H          -0.4556   -3.5650    0.5039 H       1  LIG1        0.0278
     11 S           1.0968   -0.1143   -0.0009 S.3     1  LIG1       -0.1412
     12 H           1.2768    1.1833   -0.0011 H       1  LIG1        0.0309
     13 C          -1.0166    1.8536    0.0014 C.ar    1  LIG1        0.0364
     14 C           0.1956    2.5069    0.0205 C.ar    1  LIG1        0.0134
     15 C           0.0262    3.9290    0.0147 C.ar    1  LIG1        0.0285
     16 C          -1.3056    4.2790   -0.0075 C.ar    1  LIG1        0.0409
     17 S          -2.2951    2.9311   -0.0215 S.2     1  LIG1       -0.0854
     18 C           1.3609    1.9304    0.0410 C.3     2  LIG2       -0.0309
     19 H           2.0609    2.5588    0.5510 H       3  UNK3        0.0000
     20 H           1.6949    1.7652   -0.9621 H       4  UNK4        0.0000
     21 H           1.2860    0.9927    0.5509 H       1  LIG1        0.1071
     22 S           1.0231    4.7632    0.0291 S.3     1  LIG1       -0.1409
     23 H           0.5659    5.9908    0.0339 H       2  LIG2        0.0309
     24 C          -1.7706    5.4930   -0.0170 C.ar    1  LIG1        0.0364
     25 C          -1.0134    6.6433   -0.0043 C.ar    1  LIG1        0.0134
     26 C          -1.8371    7.8147   -0.0210 C.ar    1  LIG1        0.0285
     27 C          -3.1754    7.4910   -0.0446 C.ar    1  LIG1        0.0409
     28 S          -3.4072    5.8350   -0.0470 S.2     1  LIG1       -0.0854
     29 C           0.2859    6.6886    0.0196 C.3     5  LIG5       -0.0309
     30 H           0.6026    7.5738    0.5305 H       6  UNK6        0.0000
     31 H           0.6609    6.7018   -0.9825 H       7  UNK7        0.0000
     32 H           0.6635    5.8276    0.5304 H       1  LIG1        0.1072
     33 S          -1.3552    9.0221   -0.0141 S.3     1  LIG1       -0.1409
     34 H          -2.3400    9.8859   -0.0118 H       3  UNK3        0.0309
     35 C          -4.1606    8.3390   -0.0631 C.ar    1  LIG1        0.0358
     36 C          -4.0397    9.7109   -0.0560 C.ar    1  LIG1        0.0127
     37 C          -5.3204   10.3513   -0.0823 C.ar    1  LIG1        0.0202
     38 C          -6.3449    9.4313   -0.1072 C.ar    1  LIG1       -0.0099
     39 S          -5.7633    7.8636   -0.0994 S.2     1  LIG1       -0.0944
     40 H          -7.6143    9.7105   -0.1337 H       1  LIG1        0.0705
     41 C          -2.9175   10.3673   -0.0292 C.3     8  LIG8       -0.0309
     42 H          -3.0598   11.2962    0.4825 H       9  UNK9        0.0000
     43 H          -2.5918   10.5579   -1.0305 H      10  UNK10       0.0000
     44 H          -2.1776    9.7879    0.4824 H       1  LIG1        0.1072
     45 S          -5.4689   11.6428   -0.0821 S.3     1  LIG1       -0.1415
     46 H          -6.7457   11.9361   -0.0821 H       1  LIG1        0.1071
@<TRIPOS>BOND
     1     9     7    1
     2    40    38    1
     3    38    39   ar
     4    38    37   ar
     5    39    35   ar
     6    37    45    1
     7    37    36   ar
     8    45    46    1
     9    35    36   ar
    10    35    27    1
    11    28    27   ar
    12    28    24   ar
    13    27    26   ar
    14    41    34    1
    15    17    16   ar
    16    17    13   ar
    17    26    33    1
    18    26    25   ar
    19    24    16    1
    20    24    25   ar
    21    33    44    1
    22    16    15   ar
    23    12    18    1
    24    11     3    1
    25    11    21    1
    26     6     1    1
    27     7     2    1
    28     7    10    1
    29     7     8    1
    30     2     3   ar
    31     2     1   ar
    32     3     4   ar
    33     1     5   ar
    34     4     5   ar
    35     4    13    1
    36    13    14   ar
    37    15    14   ar
    38    15    22    1
    39    29    23    1
    40    22    32    1
