@<TRIPOS>MOLECULE
mol_data/noopt/geoms/mol2/5ig5ig5ig-.out
 35 31 0 0 0
SMALL
GASTEIGER

@<TRIPOS>ATOM
      1 C          -2.0792   -1.7080   -0.0002 C.ar    1  LIG1       -0.0197
      2 C          -0.7020   -1.7080   -0.0002 C.ar    1  LIG1       -0.0297
      3 C          -0.1766   -0.3757   -0.0002 C.ar    1  LIG1        0.0230
      4 C          -1.1831    0.5643    0.0006 C.ar    1  LIG1        0.0399
      5 S          -2.6937   -0.1528    0.0006 S.2     1  LIG1       -0.0947
      6 H          -2.8374   -2.7640   -0.0008 H       1  LIG1        0.0696
      7 C           0.0505   -2.7685   -0.0004 C.3     1  LIG1       -0.0382
      8 H           0.9694   -2.5538    0.5040 H       1  LIG1        0.0278
      9 H           0.2569   -3.0592   -1.0093 H       1  LIG1        0.0278
     10 H          -0.4556   -3.5650    0.5039 H       1  LIG1        0.0278
     11 S           1.0968   -0.1143   -0.0009 S.3     1  LIG1       -0.1412
     12 H           1.2768    1.1833   -0.0011 H       1  LIG1        0.0309
     13 C          -1.0166    1.8536    0.0014 C.ar    1  LIG1        0.0364
     14 C           0.1956    2.5069    0.0205 C.ar    1  LIG1        0.0134
     15 C           0.0262    3.9290    0.0147 C.ar    1  LIG1        0.0285
     16 C          -1.3056    4.2790   -0.0075 C.ar    1  LIG1        0.0409
     17 S          -2.2951    2.9311   -0.0215 S.2     1  LIG1       -0.0854
     18 C           1.3609    1.9304    0.0410 C.3     2  LIG2       -0.0309
     19 H           2.0609    2.5588    0.5510 H       3  UNK3        0.0000
     20 H           1.6949    1.7652   -0.9621 H       4  UNK4        0.0000
     21 H           1.2860    0.9927    0.5509 H       1  LIG1        0.1071
     22 S           1.0231    4.7632    0.0291 S.3     1  LIG1       -0.1409
     23 H           0.5659    5.9908    0.0339 H       2  LIG2        0.0309
     24 C          -1.7706    5.4930   -0.0170 C.ar    1  LIG1        0.0358
     25 C          -1.0134    6.6433   -0.0043 C.ar    1  LIG1        0.0127
     26 C          -1.8371    7.8147   -0.0210 C.ar    1  LIG1        0.0202
     27 C          -3.1754    7.4910   -0.0446 C.ar    1  LIG1       -0.0099
     28 S          -3.4072    5.8350   -0.0470 S.2     1  LIG1       -0.0944
     29 H          -4.1606    8.3390   -0.0631 H       1  LIG1        0.0705
     30 C           0.2859    6.6886    0.0196 C.3     5  LIG5       -0.0309
     31 H           0.6026    7.5738    0.5305 H       6  UNK6        0.0000
     32 H           0.6609    6.7018   -0.9825 H       7  UNK7        0.0000
     33 H           0.6635    5.8276    0.5304 H       1  LIG1        0.1072
     34 S          -1.3552    9.0221   -0.0141 S.3     1  LIG1       -0.1415
     35 H          -2.3400    9.8859   -0.0118 H       1  LIG1        0.1071
@<TRIPOS>BOND
     1     9     7    1
     2    29    27    1
     3    28    27   ar
     4    28    24   ar
     5    27    26   ar
     6    17    16   ar
     7    17    13   ar
     8    26    34    1
     9    26    25   ar
    10    24    16    1
    11    24    25   ar
    12    34    35    1
    13    16    15   ar
    14    12    18    1
    15    11     3    1
    16    11    21    1
    17     6     1    1
    18     7     2    1
    19     7    10    1
    20     7     8    1
    21     1     2   ar
    22     1     5   ar
    23     2     3   ar
    24     3     4   ar
    25     4     5   ar
    26     4    13    1
    27    13    14   ar
    28    15    14   ar
    29    15    22    1
    30    30    23    1
    31    22    33    1
