@<TRIPOS>MOLECULE
mol_data/noopt/geoms/mol2/5ig5ig-5ig5ig.out
 46 40 0 0 0
SMALL
GASTEIGER

@<TRIPOS>ATOM
      1 C          -2.0792   -1.7080   -0.0002 C.ar    1  LIG1       -0.0197
      2 C          -0.7020   -1.7080   -0.0002 C.ar    1  LIG1       -0.0297
      3 C          -0.1766   -0.3757   -0.0002 C.ar    1  LIG1        0.0230
      4 C          -1.1831    0.5643    0.0006 C.ar    1  LIG1        0.0399
      5 S          -2.6937   -0.1528    0.0006 S.2     1  LIG1       -0.0947
      6 H          -2.8374   -2.7640   -0.0008 H       1  LIG1        0.0696
      7 C           0.0505   -2.7685   -0.0004 C.3     1  LIG1       -0.0382
      8 H           0.9694   -2.5538    0.5040 H       1  LIG1        0.0278
      9 H           0.2569   -3.0592   -1.0093 H       1  LIG1        0.0278
     10 H          -0.4556   -3.5650    0.5039 H       1  LIG1        0.0278
     11 S           1.0968   -0.1143   -0.0009 S.3     1  LIG1       -0.1412
     12 H           1.2768    1.1833   -0.0011 H       1  LIG1        0.0309
     13 C          -1.0166    1.8536    0.0014 C.ar    1  LIG1        0.0364
     14 C           0.1958    2.5069    0.0015 C.ar    1  LIG1        0.0134
     15 C           0.0263    3.9290    0.0017 C.ar    1  LIG1        0.0285
     16 C          -1.3057    4.2790    0.0026 C.ar    1  LIG1        0.0409
     17 S          -2.2953    2.9311    0.0023 S.2     1  LIG1       -0.0854
     18 C           1.3613    1.9304    0.0013 C.3     2  LIG2       -0.0309
     19 H           2.0684    2.5552    0.5056 H       3  UNK3        0.0000
     20 H           1.6808    1.7723   -1.0077 H       4  UNK4        0.0000
     21 H           1.2936    0.9891    0.5055 H       1  LIG1        0.1071
     22 S           1.0233    4.7632    0.0012 S.3     1  LIG1       -0.1409
     23 H           0.5662    5.9909    0.0010 H       2  LIG2        0.0309
     24 C          -1.7708    5.4930    0.0035 C.ar    1  LIG1        0.0364
     25 C          -1.0134    6.6433    0.0038 C.ar    1  LIG1        0.0134
     26 C          -1.8373    7.8147    0.0042 C.ar    1  LIG1        0.0285
     27 C          -3.1759    7.4910    0.0050 C.ar    1  LIG1        0.0409
     28 S          -3.4076    5.8350    0.0046 S.2     1  LIG1       -0.0854
     29 C           0.2861    6.6886    0.0034 C.3     5  LIG5       -0.0309
     30 H           0.6122    7.5742    0.5078 H       6  UNK6        0.0000
     31 H           0.6423    6.7011   -1.0055 H       7  UNK7        0.0000
     32 H           0.6731    5.8279    0.5077 H       1  LIG1        0.1072
     33 S          -1.3553    9.0221    0.0038 S.3     1  LIG1       -0.1409
     34 H          -2.3401    9.8860    0.0036 H       3  UNK3        0.0309
     35 C          -4.1612    8.3391    0.0062 C.ar    1  LIG1        0.0358
     36 C          -4.0402    9.7108    0.0254 C.ar    1  LIG1        0.0127
     37 C          -5.3212   10.3513    0.0201 C.ar    1  LIG1        0.0202
     38 C          -6.3459    9.4314   -0.0022 C.ar    1  LIG1       -0.0099
     39 S          -5.7642    7.8638   -0.0165 S.2     1  LIG1       -0.0944
     40 H          -7.6155    9.7107   -0.0114 H       1  LIG1        0.0705
     41 C          -2.9179   10.3671    0.0459 C.3     8  LIG8       -0.0309
     42 H          -3.0578   11.2973    0.5558 H       9  UNK9        0.0000
     43 H          -2.5963   10.5551   -0.9573 H      10  UNK10       0.0000
     44 H          -2.1759    9.7888    0.5558 H       1  LIG1        0.1072
     45 S          -5.4697   11.6427    0.0347 S.3     1  LIG1       -0.1415
     46 H          -6.7465   11.9359    0.0396 H       1  LIG1        0.1071
@<TRIPOS>BOND
     1     9     7    1
     2    39    38   ar
     3    39    35   ar
     4    40    38    1
     5    38    37   ar
     6    12    18    1
     7    11     3    1
     8    11    21    1
     9     6     1    1
    10     7     2    1
    11     7    10    1
    12     7     8    1
    13     1     2   ar
    14     1     5   ar
    15     3     2   ar
    16     3     4   ar
    17     5     4   ar
    18     4    13    1
    19    23    29    1
    20    22    15    1
    21    22    32    1
    22    13    14   ar
    23    13    17   ar
    24    14    15   ar
    25    15    16   ar
    26    17    16   ar
    27    16    24    1
    28    24    25   ar
    29    24    28   ar
    30    34    41    1
    31    33    26    1
    32    33    44    1
    33    25    26   ar
    34    26    27   ar
    35    28    27   ar
    36    27    35    1
    37    35    36   ar
    38    37    36   ar
    39    37    45    1
    40    45    46    1
