@<TRIPOS>MOLECULE
mol_data/noopt/geoms/mol2/5ig5ig-5ig-.out
 35 31 0 0 0
SMALL
GASTEIGER

@<TRIPOS>ATOM
      1 C          -2.0792   -1.7080   -0.0002 C.ar    1  LIG1       -0.0197
      2 C          -0.7020   -1.7080   -0.0002 C.ar    1  LIG1       -0.0297
      3 C          -0.1766   -0.3757   -0.0002 C.ar    1  LIG1        0.0230
      4 C          -1.1831    0.5643    0.0006 C.ar    1  LIG1        0.0399
      5 S          -2.6937   -0.1528    0.0006 S.2     1  LIG1       -0.0947
      6 H          -2.8374   -2.7640   -0.0008 H       1  LIG1        0.0696
      7 C           0.0505   -2.7685   -0.0004 C.3     1  LIG1       -0.0382
      8 H           0.9694   -2.5538    0.5040 H       1  LIG1        0.0278
      9 H           0.2569   -3.0592   -1.0093 H       1  LIG1        0.0278
     10 H          -0.4556   -3.5650    0.5039 H       1  LIG1        0.0278
     11 S           1.0968   -0.1143   -0.0009 S.3     1  LIG1       -0.1412
     12 H           1.2768    1.1833   -0.0011 H       1  LIG1        0.0309
     13 C          -1.0166    1.8536    0.0014 C.ar    1  LIG1        0.0364
     14 C           0.1958    2.5069    0.0015 C.ar    1  LIG1        0.0134
     15 C           0.0263    3.9290    0.0017 C.ar    1  LIG1        0.0285
     16 C          -1.3057    4.2790    0.0026 C.ar    1  LIG1        0.0409
     17 S          -2.2953    2.9311    0.0023 S.2     1  LIG1       -0.0854
     18 C           1.3613    1.9304    0.0013 C.3     2  LIG2       -0.0309
     19 H           2.0684    2.5552    0.5056 H       3  UNK3        0.0000
     20 H           1.6808    1.7723   -1.0077 H       4  UNK4        0.0000
     21 H           1.2936    0.9891    0.5055 H       1  LIG1        0.1071
     22 S           1.0233    4.7632    0.0012 S.3     1  LIG1       -0.1409
     23 H           0.5662    5.9909    0.0010 H       2  LIG2        0.0309
     24 C          -1.7708    5.4930    0.0035 C.ar    1  LIG1        0.0358
     25 C          -1.0136    6.6432    0.0227 C.ar    1  LIG1        0.0127
     26 C          -1.8374    7.8147    0.0172 C.ar    1  LIG1        0.0202
     27 C          -3.1758    7.4910   -0.0051 C.ar    1  LIG1       -0.0099
     28 S          -3.4074    5.8351   -0.0192 S.2     1  LIG1       -0.0944
     29 H          -4.1610    8.3391   -0.0144 H       1  LIG1        0.0705
     30 C           0.2858    6.6885    0.0432 C.3     5  LIG5       -0.0309
     31 H           0.6039    7.5737    0.5532 H       6  UNK6        0.0000
     32 H           0.6581    6.7015   -0.9599 H       7  UNK7        0.0000
     33 H           0.6646    5.8274    0.5531 H       1  LIG1        0.1072
     34 S          -1.3555    9.0220    0.0317 S.3     1  LIG1       -0.1415
     35 H          -2.3403    9.8858    0.0366 H       1  LIG1        0.1071
@<TRIPOS>BOND
     1     9     7    1
     2    28    27   ar
     3    28    24   ar
     4    29    27    1
     5    27    26   ar
     6    12    18    1
     7    11     3    1
     8    11    21    1
     9     6     1    1
    10     7     2    1
    11     7    10    1
    12     7     8    1
    13     1     2   ar
    14     1     5   ar
    15     3     2   ar
    16     3     4   ar
    17     5     4   ar
    18     4    13    1
    19    23    30    1
    20    22    15    1
    21    22    33    1
    22    13    14   ar
    23    13    17   ar
    24    14    15   ar
    25    15    16   ar
    26    17    16   ar
    27    16    24    1
    28    24    25   ar
    29    26    25   ar
    30    26    34    1
    31    34    35    1
