@<TRIPOS>MOLECULE
mol_data/noopt/geoms/mol2/5ih.out
 14 14 0 0 0
SMALL
GASTEIGER

@<TRIPOS>ATOM
      1 C          -2.0792   -1.7080   -0.0002 C.ar    1  LIG1       -0.0196
      2 C          -0.7020   -1.7080   -0.0002 C.ar    1  LIG1       -0.0228
      3 C          -0.1766   -0.3757   -0.0002 C.ar    1  LIG1        0.0346
      4 C          -1.1831    0.5643    0.0006 C.ar    1  LIG1       -0.0034
      5 S          -2.6937   -0.1528    0.0006 S.2     1  LIG1       -0.1029
      6 H          -2.8374   -2.7640   -0.0008 H       1  LIG1        0.0696
      7 H          -1.0166    1.8536    0.0014 H       1  LIG1        0.0712
      8 C           0.0505   -2.7685   -0.0004 C.3     1  LIG1       -0.0375
      9 H           0.9694   -2.5538    0.5040 H       1  LIG1        0.0278
     10 H           0.2569   -3.0592   -1.0093 H       1  LIG1        0.0278
     11 H          -0.4556   -3.5650    0.5039 H       1  LIG1        0.0278
     12 N           1.0969   -0.1143   -0.0009 N.pl3   1  LIG1       -0.3573
     13 H           1.5873   -0.8472   -0.4725 H       1  LIG1        0.1423
     14 H           1.2590    0.7524   -0.4725 H       1  LIG1        0.1423
@<TRIPOS>BOND
     1    10     8    1
     2    14    12    1
     3    13    12    1
     4    12     3    1
     5     6     1    1
     6     8     2    1
     7     8    11    1
     8     8     9    1
     9     1     2   ar
    10     1     5   ar
    11     2     3   ar
    12     3     4   ar
    13     4     5   ar
    14     4     7    1
