@<TRIPOS>MOLECULE
mol_data/noopt/geoms/mol2/5ih5ih-5ih-5ih-.out
 50 53 0 0 0
SMALL
GASTEIGER

@<TRIPOS>ATOM
      1 C          -2.0792   -1.7080   -0.0002 C.ar    1  LIG1       -0.0190
      2 C          -0.7020   -1.7080   -0.0002 C.ar    1  LIG1       -0.0222
      3 C          -0.1766   -0.3757   -0.0002 C.ar    1  LIG1        0.0430
      4 C          -1.1831    0.5643    0.0006 C.ar    1  LIG1        0.0471
      5 S          -2.6937   -0.1528    0.0006 S.2     1  LIG1       -0.0940
      6 H          -2.8374   -2.7640   -0.0008 H       1  LIG1        0.0697
      7 C           0.0505   -2.7685   -0.0004 C.3     1  LIG1       -0.0374
      8 H           0.9694   -2.5538    0.5040 H       1  LIG1        0.0278
      9 H           0.2569   -3.0592   -1.0093 H       1  LIG1        0.0278
     10 H          -0.4556   -3.5650    0.5039 H       1  LIG1        0.0278
     11 N           1.0969   -0.1143   -0.0009 N.pl3   1  LIG1       -0.3569
     12 H           1.5873   -0.8472   -0.4725 H       1  LIG1        0.1424
     13 H           1.2590    0.7524   -0.4725 H       1  LIG1        0.1424
     14 C          -1.0166    1.8536    0.0014 C.ar    1  LIG1        0.0330
     15 C           0.1958    2.5069    0.0015 C.ar    1  LIG1       -0.0139
     16 C           0.0263    3.9290    0.0017 C.ar    1  LIG1        0.0436
     17 C          -1.3057    4.2790    0.0026 C.ar    1  LIG1        0.0477
     18 S          -2.2953    2.9311    0.0023 S.2     1  LIG1       -0.0850
     19 C           1.3613    1.9304    0.0013 C.3     1  LIG1       -0.0368
     20 H           2.0684    2.5552    0.5056 H       1  LIG1        0.0278
     21 H           1.6808    1.7723   -1.0077 H       1  LIG1        0.0278
     22 H           1.2936    0.9891    0.5055 H       1  LIG1        0.0278
     23 N           1.0233    4.7632    0.0012 N.pl3   1  LIG1       -0.3568
     24 H           1.8027    4.3508   -0.4704 H       1  LIG1        0.1424
     25 H           0.7549    5.6032   -0.4704 H       1  LIG1        0.1424
     26 C          -1.7708    5.4930    0.0035 C.ar    1  LIG1        0.0330
     27 C          -1.0136    6.6432    0.0227 C.ar    1  LIG1       -0.0139
     28 C          -1.8374    7.8147    0.0172 C.ar    1  LIG1        0.0436
     29 C          -3.1758    7.4910   -0.0051 C.ar    1  LIG1        0.0477
     30 S          -3.4074    5.8351   -0.0192 S.2     1  LIG1       -0.0850
     31 C           0.2858    6.6885    0.0432 C.3     1  LIG1       -0.0368
     32 H           0.6039    7.5737    0.5532 H       1  LIG1        0.0278
     33 H           0.6581    6.7015   -0.9599 H       1  LIG1        0.0278
     34 H           0.6646    5.8274    0.5531 H       1  LIG1        0.0278
     35 N          -1.3555    9.0220    0.0317 N.pl3   1  LIG1       -0.3568
     36 H          -0.4717    9.0338   -0.4360 H       1  LIG1        0.1424
     37 H          -1.9883    9.6391   -0.4360 H       1  LIG1        0.1424
     38 C          -4.1610    8.3391   -0.0144 C.ar    1  LIG1        0.0324
     39 C          -4.0399    9.7110   -0.0205 C.ar    1  LIG1       -0.0145
     40 C          -5.3208   10.3515   -0.0311 C.ar    1  LIG1        0.0352
     41 C          -6.3457    9.4315   -0.0316 C.ar    1  LIG1       -0.0028
     42 S          -5.7642    7.8638   -0.0205 S.2     1  LIG1       -0.0939
     43 H          -7.6153    9.7107   -0.0396 H       1  LIG1        0.0712
     44 C          -2.9174   10.3673   -0.0175 C.3     1  LIG1       -0.0369
     45 H          -3.0514   11.3010    0.4878 H       1  LIG1        0.0278
     46 H          -2.6075   10.5486   -1.0255 H       1  LIG1        0.0278
     47 H          -2.1695    9.7925    0.4877 H       1  LIG1        0.0278
     48 N          -5.4692   11.6430   -0.0391 N.pl3   1  LIG1       -0.3573
     49 H          -4.6957   12.0644   -0.5125 H       1  LIG1        0.1423
     50 H          -6.3180   11.8781   -0.5125 H       1  LIG1        0.1423
@<TRIPOS>BOND
     1    46    44    1
     2     9     7    1
     3    21    19    1
     4    33    31    1
     5    50    48    1
     6    49    48    1
     7    13    11    1
     8    12    11    1
     9    25    23    1
    10    24    23    1
    11    37    35    1
    12    36    35    1
    13    43    41    1
    14    48    40    1
    15    41    40   ar
    16    41    42   ar
    17    40    39   ar
    18    39    44    1
    19    39    38   ar
    20    42    38   ar
    21    30    29   ar
    22    30    26   ar
    23    44    47    1
    24    44    45    1
    25    38    29    1
    26    29    28   ar
    27    11     3    1
    28     6     1    1
    29     7     2    1
    30     7    10    1
    31     7     8    1
    32     1     2   ar
    33     1     5   ar
    34     2     3   ar
    35     3     4   ar
    36     4     5   ar
    37     4    14    1
    38    23    16    1
    39    19    15    1
    40    19    22    1
    41    19    20    1
    42    14    15   ar
    43    14    18   ar
    44    15    16   ar
    45    16    17   ar
    46    18    17   ar
    47    17    26    1
    48    26    27   ar
    49    28    27   ar
    50    28    35    1
    51    27    31    1
    52    31    34    1
    53    31    32    1
