@<TRIPOS>MOLECULE
mol_data/noopt/geoms/mol2/5ih5ih5ih.out
 38 40 0 0 0
SMALL
GASTEIGER

@<TRIPOS>ATOM
      1 C          -2.0792   -1.7080   -0.0002 C.ar    1  LIG1       -0.0190
      2 C          -0.7020   -1.7080   -0.0002 C.ar    1  LIG1       -0.0222
      3 C          -0.1766   -0.3757   -0.0002 C.ar    1  LIG1        0.0430
      4 C          -1.1831    0.5643    0.0006 C.ar    1  LIG1        0.0471
      5 S          -2.6937   -0.1528    0.0006 S.2     1  LIG1       -0.0940
      6 H          -2.8374   -2.7640   -0.0008 H       1  LIG1        0.0697
      7 C           0.0505   -2.7685   -0.0004 C.3     1  LIG1       -0.0374
      8 H           0.9694   -2.5538    0.5040 H       1  LIG1        0.0278
      9 H           0.2569   -3.0592   -1.0093 H       1  LIG1        0.0278
     10 H          -0.4556   -3.5650    0.5039 H       1  LIG1        0.0278
     11 N           1.0969   -0.1143   -0.0009 N.pl3   1  LIG1       -0.3569
     12 H           1.5873   -0.8472   -0.4725 H       1  LIG1        0.1424
     13 H           1.2590    0.7524   -0.4725 H       1  LIG1        0.1424
     14 C          -1.0166    1.8536    0.0014 C.ar    1  LIG1        0.0330
     15 C           0.1956    2.5069    0.0205 C.ar    1  LIG1       -0.0139
     16 C           0.0262    3.9290    0.0147 C.ar    1  LIG1        0.0436
     17 C          -1.3056    4.2790   -0.0075 C.ar    1  LIG1        0.0477
     18 S          -2.2951    2.9311   -0.0215 S.2     1  LIG1       -0.0850
     19 C           1.3609    1.9304    0.0410 C.3     1  LIG1       -0.0368
     20 H           2.0609    2.5588    0.5510 H       1  LIG1        0.0278
     21 H           1.6949    1.7652   -0.9621 H       1  LIG1        0.0278
     22 H           1.2860    0.9927    0.5509 H       1  LIG1        0.0278
     23 N           1.0231    4.7633    0.0291 N.pl3   1  LIG1       -0.3568
     24 H           1.8067    4.3543   -0.4386 H       1  LIG1        0.1424
     25 H           0.7588    5.6066   -0.4386 H       1  LIG1        0.1424
     26 C          -1.7706    5.4930   -0.0170 C.ar    1  LIG1        0.0324
     27 C          -1.0132    6.6432   -0.0232 C.ar    1  LIG1       -0.0145
     28 C          -1.8369    7.8147   -0.0340 C.ar    1  LIG1        0.0352
     29 C          -3.1756    7.4910   -0.0345 C.ar    1  LIG1       -0.0028
     30 S          -3.4074    5.8350   -0.0232 S.2     1  LIG1       -0.0939
     31 H          -4.1608    8.3391   -0.0426 H       1  LIG1        0.0712
     32 C           0.2863    6.6885   -0.0202 C.3     1  LIG1       -0.0369
     33 H           0.6112    7.5740    0.4851 H       1  LIG1        0.0278
     34 H           0.6452    6.7010   -1.0282 H       1  LIG1        0.0278
     35 H           0.6720    5.8277    0.4850 H       1  LIG1        0.0278
     36 N          -1.3549    9.0220   -0.0421 N.pl3   1  LIG1       -0.3573
     37 H          -0.4741    9.0260   -0.5155 H       1  LIG1        0.1423
     38 H          -1.9906    9.6316   -0.5156 H       1  LIG1        0.1423
@<TRIPOS>BOND
     1    34    32    1
     2     9     7    1
     3    21    19    1
     4    38    36    1
     5    37    36    1
     6    13    11    1
     7    12    11    1
     8    25    23    1
     9    24    23    1
    10    31    29    1
    11    36    28    1
    12    29    28   ar
    13    29    30   ar
    14    28    27   ar
    15    27    32    1
    16    27    26   ar
    17    30    26   ar
    18    18    17   ar
    19    18    14   ar
    20    32    35    1
    21    32    33    1
    22    26    17    1
    23    17    16   ar
    24    11     3    1
    25     6     1    1
    26     7     2    1
    27     7    10    1
    28     7     8    1
    29     1     2   ar
    30     1     5   ar
    31     3     2   ar
    32     3     4   ar
    33     5     4   ar
    34     4    14    1
    35    14    15   ar
    36    16    15   ar
    37    16    23    1
    38    15    19    1
    39    19    22    1
    40    19    20    1
