@<TRIPOS>MOLECULE
mol_data/noopt/geoms/mol2/5ih5ih-.out
 26 27 0 0 0
SMALL
GASTEIGER

@<TRIPOS>ATOM
      1 C          -2.0792   -1.7080   -0.0002 C.ar    1  LIG1       -0.0190
      2 C          -0.7020   -1.7080   -0.0002 C.ar    1  LIG1       -0.0222
      3 C          -0.1766   -0.3757   -0.0002 C.ar    1  LIG1        0.0430
      4 C          -1.1831    0.5643    0.0006 C.ar    1  LIG1        0.0470
      5 S          -2.6937   -0.1528    0.0006 S.2     1  LIG1       -0.0940
      6 H          -2.8374   -2.7640   -0.0008 H       1  LIG1        0.0697
      7 C           0.0505   -2.7685   -0.0004 C.3     1  LIG1       -0.0374
      8 H           0.9694   -2.5538    0.5040 H       1  LIG1        0.0278
      9 H           0.2569   -3.0592   -1.0093 H       1  LIG1        0.0278
     10 H          -0.4556   -3.5650    0.5039 H       1  LIG1        0.0278
     11 N           1.0969   -0.1143   -0.0009 N.pl3   1  LIG1       -0.3569
     12 H           1.5873   -0.8472   -0.4725 H       1  LIG1        0.1424
     13 H           1.2590    0.7524   -0.4725 H       1  LIG1        0.1424
     14 C          -1.0166    1.8536    0.0014 C.ar    1  LIG1        0.0324
     15 C           0.1958    2.5069    0.0015 C.ar    1  LIG1       -0.0145
     16 C           0.0263    3.9290    0.0017 C.ar    1  LIG1        0.0352
     17 C          -1.3057    4.2790    0.0026 C.ar    1  LIG1       -0.0028
     18 S          -2.2953    2.9311    0.0023 S.2     1  LIG1       -0.0939
     19 H          -1.7708    5.4930    0.0035 H       1  LIG1        0.0712
     20 C           1.3613    1.9304    0.0013 C.3     1  LIG1       -0.0369
     21 H           2.0684    2.5552    0.5056 H       1  LIG1        0.0278
     22 H           1.6808    1.7723   -1.0077 H       1  LIG1        0.0278
     23 H           1.2936    0.9891    0.5055 H       1  LIG1        0.0278
     24 N           1.0233    4.7632    0.0012 N.pl3   1  LIG1       -0.3573
     25 H           1.8027    4.3508   -0.4704 H       1  LIG1        0.1423
     26 H           0.7549    5.6032   -0.4704 H       1  LIG1        0.1423
@<TRIPOS>BOND
     1     9     7    1
     2    22    20    1
     3    13    11    1
     4    12    11    1
     5    26    24    1
     6    25    24    1
     7    11     3    1
     8     6     1    1
     9     7     2    1
    10     7    10    1
    11     7     8    1
    12     1     2   ar
    13     1     5   ar
    14     3     2   ar
    15     3     4   ar
    16     5     4   ar
    17     4    14    1
    18    24    16    1
    19    20    15    1
    20    20    23    1
    21    20    21    1
    22    14    15   ar
    23    14    18   ar
    24    15    16   ar
    25    16    17   ar
    26    18    17   ar
    27    17    19    1
