@<TRIPOS>MOLECULE
mol_data/noopt/geoms/mol2/5ih5ih.out
 26 27 0 0 0
SMALL
GASTEIGER

@<TRIPOS>ATOM
      1 C          -2.0792   -1.7080   -0.0002 C.ar    1  LIG1       -0.0190
      2 C          -0.7020   -1.7080   -0.0002 C.ar    1  LIG1       -0.0222
      3 C          -0.1766   -0.3757   -0.0002 C.ar    1  LIG1        0.0430
      4 C          -1.1831    0.5643    0.0006 C.ar    1  LIG1        0.0470
      5 S          -2.6937   -0.1528    0.0006 S.2     1  LIG1       -0.0940
      6 H          -2.8374   -2.7640   -0.0008 H       1  LIG1        0.0697
      7 C           0.0505   -2.7685   -0.0004 C.3     1  LIG1       -0.0374
      8 H           0.9694   -2.5538    0.5040 H       1  LIG1        0.0278
      9 H           0.2569   -3.0592   -1.0093 H       1  LIG1        0.0278
     10 H          -0.4556   -3.5650    0.5039 H       1  LIG1        0.0278
     11 N           1.0969   -0.1143   -0.0009 N.pl3   1  LIG1       -0.3569
     12 H           1.5873   -0.8472   -0.4725 H       1  LIG1        0.1424
     13 H           1.2590    0.7524   -0.4725 H       1  LIG1        0.1424
     14 C          -1.0166    1.8536    0.0014 C.ar    1  LIG1        0.0324
     15 C           0.1956    2.5069    0.0205 C.ar    1  LIG1       -0.0145
     16 C           0.0262    3.9290    0.0147 C.ar    1  LIG1        0.0352
     17 C          -1.3056    4.2790   -0.0075 C.ar    1  LIG1       -0.0028
     18 S          -2.2951    2.9311   -0.0215 S.2     1  LIG1       -0.0939
     19 H          -1.7706    5.4930   -0.0170 H       1  LIG1        0.0712
     20 C           1.3609    1.9304    0.0410 C.3     1  LIG1       -0.0369
     21 H           2.0609    2.5588    0.5510 H       1  LIG1        0.0278
     22 H           1.6949    1.7652   -0.9621 H       1  LIG1        0.0278
     23 H           1.2860    0.9927    0.5509 H       1  LIG1        0.0278
     24 N           1.0231    4.7633    0.0291 N.pl3   1  LIG1       -0.3573
     25 H           1.8067    4.3543   -0.4386 H       1  LIG1        0.1423
     26 H           0.7588    5.6066   -0.4386 H       1  LIG1        0.1423
@<TRIPOS>BOND
     1     9     7    1
     2    22    20    1
     3    13    11    1
     4    12    11    1
     5    26    24    1
     6    25    24    1
     7    18    17   ar
     8    18    14   ar
     9    19    17    1
    10    17    16   ar
    11    11     3    1
    12     6     1    1
    13     7     2    1
    14     7    10    1
    15     7     8    1
    16     1     2   ar
    17     1     5   ar
    18     3     2   ar
    19     3     4   ar
    20     5     4   ar
    21     4    14    1
    22    14    15   ar
    23    16    15   ar
    24    16    24    1
    25    15    20    1
    26    20    23    1
    27    20    21    1
