@<TRIPOS>MOLECULE
mol_data/noopt/geoms/mol2/5ih5ih5ih-5ih-.out
 50 53 0 0 0
SMALL
GASTEIGER

@<TRIPOS>ATOM
      1 C          -2.0792   -1.7080   -0.0002 C.ar    1  LIG1       -0.0190
      2 C          -0.7020   -1.7080   -0.0002 C.ar    1  LIG1       -0.0222
      3 C          -0.1766   -0.3757   -0.0002 C.ar    1  LIG1        0.0430
      4 C          -1.1831    0.5643    0.0006 C.ar    1  LIG1        0.0471
      5 S          -2.6937   -0.1528    0.0006 S.2     1  LIG1       -0.0940
      6 H          -2.8374   -2.7640   -0.0008 H       1  LIG1        0.0697
      7 C           0.0505   -2.7685   -0.0004 C.3     1  LIG1       -0.0374
      8 H           0.9694   -2.5538    0.5040 H       1  LIG1        0.0278
      9 H           0.2569   -3.0592   -1.0093 H       1  LIG1        0.0278
     10 H          -0.4556   -3.5650    0.5039 H       1  LIG1        0.0278
     11 N           1.0969   -0.1143   -0.0009 N.pl3   1  LIG1       -0.3569
     12 H           1.5873   -0.8472   -0.4725 H       1  LIG1        0.1424
     13 H           1.2590    0.7524   -0.4725 H       1  LIG1        0.1424
     14 C          -1.0166    1.8536    0.0014 C.ar    1  LIG1        0.0330
     15 C           0.1956    2.5069    0.0205 C.ar    1  LIG1       -0.0139
     16 C           0.0262    3.9290    0.0147 C.ar    1  LIG1        0.0436
     17 C          -1.3056    4.2790   -0.0075 C.ar    1  LIG1        0.0477
     18 S          -2.2951    2.9311   -0.0215 S.2     1  LIG1       -0.0850
     19 C           1.3609    1.9304    0.0410 C.3     1  LIG1       -0.0368
     20 H           2.0609    2.5588    0.5510 H       1  LIG1        0.0278
     21 H           1.6949    1.7652   -0.9621 H       1  LIG1        0.0278
     22 H           1.2860    0.9927    0.5509 H       1  LIG1        0.0278
     23 N           1.0231    4.7633    0.0291 N.pl3   1  LIG1       -0.3568
     24 H           1.8067    4.3543   -0.4386 H       1  LIG1        0.1424
     25 H           0.7588    5.6066   -0.4386 H       1  LIG1        0.1424
     26 C          -1.7706    5.4930   -0.0170 C.ar    1  LIG1        0.0330
     27 C          -1.0134    6.6433   -0.0043 C.ar    1  LIG1       -0.0139
     28 C          -1.8371    7.8147   -0.0210 C.ar    1  LIG1        0.0436
     29 C          -3.1754    7.4910   -0.0446 C.ar    1  LIG1        0.0477
     30 S          -3.4072    5.8350   -0.0470 S.2     1  LIG1       -0.0850
     31 C           0.2859    6.6886    0.0196 C.3     1  LIG1       -0.0368
     32 H           0.6026    7.5738    0.5305 H       1  LIG1        0.0278
     33 H           0.6609    6.7018   -0.9825 H       1  LIG1        0.0278
     34 H           0.6635    5.8276    0.5304 H       1  LIG1        0.0278
     35 N          -1.3551    9.0221   -0.0141 N.pl3   1  LIG1       -0.3568
     36 H          -0.4723    9.0313   -0.4838 H       1  LIG1        0.1424
     37 H          -1.9889    9.6367   -0.4838 H       1  LIG1        0.1424
     38 C          -4.1606    8.3390   -0.0631 C.ar    1  LIG1        0.0324
     39 C          -4.0394    9.7108   -0.0749 C.ar    1  LIG1       -0.0145
     40 C          -5.3202   10.3513   -0.0953 C.ar    1  LIG1        0.0352
     41 C          -6.3451    9.4313   -0.0971 C.ar    1  LIG1       -0.0028
     42 S          -5.7637    7.8636   -0.0756 S.2     1  LIG1       -0.0939
     43 H          -7.6146    9.7105   -0.1131 H       1  LIG1        0.0712
     44 C          -2.9169   10.3672   -0.0689 C.3     1  LIG1       -0.0369
     45 H          -3.0520   11.3002    0.4371 H       1  LIG1        0.0278
     46 H          -2.6050   10.5496   -1.0761 H       1  LIG1        0.0278
     47 H          -2.1700    9.7918    0.4371 H       1  LIG1        0.0278
     48 N          -5.4685   11.6427   -0.1100 N.pl3   1  LIG1       -0.3573
     49 H          -4.6947   12.0617   -0.5852 H       1  LIG1        0.1423
     50 H          -6.3170   11.8754   -0.5852 H       1  LIG1        0.1423
@<TRIPOS>BOND
     1    46    44    1
     2     9     7    1
     3    33    31    1
     4    21    19    1
     5    50    48    1
     6    49    48    1
     7    37    35    1
     8    36    35    1
     9    13    11    1
    10    12    11    1
    11    25    23    1
    12    24    23    1
    13    43    41    1
    14    48    40    1
    15    41    40   ar
    16    41    42   ar
    17    40    39   ar
    18    42    38   ar
    19    39    44    1
    20    39    38   ar
    21    44    47    1
    22    44    45    1
    23    38    29    1
    24    30    29   ar
    25    30    26   ar
    26    29    28   ar
    27    18    17   ar
    28    18    14   ar
    29    28    35    1
    30    28    27   ar
    31    26    17    1
    32    26    27   ar
    33    17    16   ar
    34    27    31    1
    35    11     3    1
    36     6     1    1
    37     7     2    1
    38     7    10    1
    39     7     8    1
    40     1     2   ar
    41     1     5   ar
    42     2     3   ar
    43     3     4   ar
    44     5     4   ar
    45     4    14    1
    46    14    15   ar
    47    16    15   ar
    48    16    23    1
    49    31    34    1
    50    31    32    1
    51    15    19    1
    52    19    22    1
    53    19    20    1
