@<TRIPOS>MOLECULE
mol_data/noopt/geoms/mol2/5ih5ih-5ih.out
 38 40 0 0 0
SMALL
GASTEIGER

@<TRIPOS>ATOM
      1 C          -2.0792   -1.7080   -0.0002 C.ar    1  LIG1       -0.0190
      2 C          -0.7020   -1.7080   -0.0002 C.ar    1  LIG1       -0.0222
      3 C          -0.1766   -0.3757   -0.0002 C.ar    1  LIG1        0.0430
      4 C          -1.1831    0.5643    0.0006 C.ar    1  LIG1        0.0471
      5 S          -2.6937   -0.1528    0.0006 S.2     1  LIG1       -0.0940
      6 H          -2.8374   -2.7640   -0.0008 H       1  LIG1        0.0697
      7 C           0.0505   -2.7685   -0.0004 C.3     1  LIG1       -0.0374
      8 H           0.9694   -2.5538    0.5040 H       1  LIG1        0.0278
      9 H           0.2569   -3.0592   -1.0093 H       1  LIG1        0.0278
     10 H          -0.4556   -3.5650    0.5039 H       1  LIG1        0.0278
     11 N           1.0969   -0.1143   -0.0009 N.pl3   1  LIG1       -0.3569
     12 H           1.5873   -0.8472   -0.4725 H       1  LIG1        0.1424
     13 H           1.2590    0.7524   -0.4725 H       1  LIG1        0.1424
     14 C          -1.0166    1.8536    0.0014 C.ar    1  LIG1        0.0330
     15 C           0.1958    2.5069    0.0015 C.ar    1  LIG1       -0.0139
     16 C           0.0263    3.9290    0.0017 C.ar    1  LIG1        0.0436
     17 C          -1.3057    4.2790    0.0026 C.ar    1  LIG1        0.0477
     18 S          -2.2953    2.9311    0.0023 S.2     1  LIG1       -0.0850
     19 C           1.3613    1.9304    0.0013 C.3     1  LIG1       -0.0368
     20 H           2.0684    2.5552    0.5056 H       1  LIG1        0.0278
     21 H           1.6808    1.7723   -1.0077 H       1  LIG1        0.0278
     22 H           1.2936    0.9891    0.5055 H       1  LIG1        0.0278
     23 N           1.0233    4.7632    0.0012 N.pl3   1  LIG1       -0.3568
     24 H           1.8027    4.3508   -0.4704 H       1  LIG1        0.1424
     25 H           0.7549    5.6032   -0.4704 H       1  LIG1        0.1424
     26 C          -1.7708    5.4930    0.0035 C.ar    1  LIG1        0.0324
     27 C          -1.0134    6.6433    0.0038 C.ar    1  LIG1       -0.0145
     28 C          -1.8373    7.8147    0.0042 C.ar    1  LIG1        0.0352
     29 C          -3.1759    7.4910    0.0050 C.ar    1  LIG1       -0.0028
     30 S          -3.4076    5.8350    0.0046 S.2     1  LIG1       -0.0939
     31 H          -4.1612    8.3391    0.0062 H       1  LIG1        0.0712
     32 C           0.2861    6.6886    0.0034 C.3     1  LIG1       -0.0369
     33 H           0.6122    7.5742    0.5078 H       1  LIG1        0.0278
     34 H           0.6423    6.7011   -1.0055 H       1  LIG1        0.0278
     35 H           0.6731    5.8279    0.5077 H       1  LIG1        0.0278
     36 N          -1.3553    9.0221    0.0038 N.pl3   1  LIG1       -0.3573
     37 H          -0.4735    9.0288   -0.4678 H       1  LIG1        0.1423
     38 H          -1.9901    9.6342   -0.4678 H       1  LIG1        0.1423
@<TRIPOS>BOND
     1     9     7    1
     2    21    19    1
     3    34    32    1
     4    13    11    1
     5    12    11    1
     6    25    23    1
     7    24    23    1
     8    38    36    1
     9    37    36    1
    10    11     3    1
    11     6     1    1
    12     7     2    1
    13     7    10    1
    14     7     8    1
    15     1     2   ar
    16     1     5   ar
    17     2     3   ar
    18     3     4   ar
    19     4     5   ar
    20     4    14    1
    21    23    16    1
    22    19    15    1
    23    19    22    1
    24    19    20    1
    25    14    15   ar
    26    14    18   ar
    27    15    16   ar
    28    16    17   ar
    29    18    17   ar
    30    17    26    1
    31    32    27    1
    32    32    35    1
    33    32    33    1
    34    26    27   ar
    35    26    30   ar
    36    36    28    1
    37    27    28   ar
    38    28    29   ar
    39    30    29   ar
    40    29    31    1
