@<TRIPOS>MOLECULE
mol_data/noopt/geoms/mol2/5ii.out
 15 15 0 0 0
SMALL
GASTEIGER

@<TRIPOS>ATOM
      1 C          -2.0792   -1.7080   -0.0002 C.ar    1  LIG1       -0.0212
      2 C          -0.7020   -1.7080   -0.0002 C.ar    1  LIG1       -0.0405
      3 C          -0.1766   -0.3757   -0.0002 C.ar    1  LIG1       -0.0405
      4 C          -1.1831    0.5643    0.0006 C.ar    1  LIG1       -0.0212
      5 S          -2.6937   -0.1528    0.0006 S.2     1  LIG1       -0.1045
      6 H          -2.8374   -2.7640   -0.0008 H       1  LIG1        0.0696
      7 H          -1.0166    1.8536    0.0014 H       1  LIG1        0.0696
      8 C           0.0505   -2.7685   -0.0004 C.3     1  LIG1       -0.0390
      9 H           0.9694   -2.5538    0.5040 H       1  LIG1        0.0278
     10 H           0.2569   -3.0592   -1.0093 H       1  LIG1        0.0278
     11 H          -0.4556   -3.5650    0.5039 H       1  LIG1        0.0278
     12 C           1.0972   -0.1142   -0.0009 C.3     1  LIG1       -0.0390
     13 H           1.2712    0.8133    0.5033 H       1  LIG1        0.0278
     14 H           1.4460   -0.0426   -1.0099 H       1  LIG1        0.0278
     15 H           1.6224   -0.8983    0.5033 H       1  LIG1        0.0278
@<TRIPOS>BOND
     1    14    12    1
     2    10     8    1
     3    12     3    1
     4    12    15    1
     5    12    13    1
     6     6     1    1
     7     8     2    1
     8     8    11    1
     9     8     9    1
    10     1     2   ar
    11     1     5   ar
    12     2     3   ar
    13     3     4   ar
    14     4     5   ar
    15     4     7    1
