@<TRIPOS>MOLECULE
mol_data/noopt/geoms/mol2/5il.out
 16 16 0 0 0
SMALL
GASTEIGER

@<TRIPOS>ATOM
      1 C          -2.0792   -1.7080   -0.0002 C.ar    1  LIG1       -0.0178
      2 C          -0.7020   -1.7080   -0.0002 C.ar    1  LIG1       -0.0018
      3 C          -0.1766   -0.3757   -0.0002 C.ar    1  LIG1        0.1300
      4 C          -1.1831    0.5643    0.0006 C.ar    1  LIG1        0.0176
      5 S          -2.6937   -0.1528    0.0006 S.2     1  LIG1       -0.1011
      6 H          -2.8374   -2.7640   -0.0008 H       1  LIG1        0.0697
      7 H          -1.0166    1.8536    0.0014 H       1  LIG1        0.0730
      8 C           0.0505   -2.7685   -0.0004 C.3     1  LIG1       -0.0357
      9 H           0.9694   -2.5538    0.5040 H       1  LIG1        0.0279
     10 H           0.2569   -3.0592   -1.0093 H       1  LIG1        0.0279
     11 H          -0.4556   -3.5650    0.5039 H       1  LIG1        0.0279
     12 O           1.0969   -0.1143   -0.0009 O.3     1  LIG1       -0.4943
     13 C           1.8355   -1.3388   -0.0012 C.3     1  LIG1        0.0788
     14 H           2.8835   -1.1232   -0.0020 H       1  LIG1        0.0660
     15 H           1.5884   -1.9046    0.8727 H       1  LIG1        0.0660
     16 H           1.5872   -1.9049   -0.8746 H       1  LIG1        0.0660
@<TRIPOS>BOND
     1    10     8    1
     2    16    13    1
     3    14    13    1
     4    13    12    1
     5    13    15    1
     6    12     3    1
     7     6     1    1
     8     8     2    1
     9     8    11    1
    10     8     9    1
    11     1     2   ar
    12     1     5   ar
    13     2     3   ar
    14     3     4   ar
    15     4     5   ar
    16     4     7    1
