@<TRIPOS>MOLECULE
mol_data/noopt/geoms/mol2/5il5il5il.out
 44 44 0 0 0
SMALL
GASTEIGER

@<TRIPOS>ATOM
      1 C          -2.0792   -1.7080   -0.0002 C.ar    1  LIG1       -0.0171
      2 C          -0.7020   -1.7080   -0.0002 C.ar    1  LIG1        0.0039
      3 C          -0.1766   -0.3757   -0.0002 C.ar    1  LIG1        0.1970
      4 C          -1.1831    0.5643    0.0006 C.ar    1  LIG1        0.0731
      5 S          -2.6937   -0.1528    0.0006 S.2     1  LIG1       -0.0920
      6 H          -2.8374   -2.7640   -0.0008 H       1  LIG1        0.0697
      7 C           0.0505   -2.7685   -0.0004 C.3     1  LIG1       -0.0356
      8 H           0.9694   -2.5538    0.5040 H       1  LIG1        0.0279
      9 H           0.2569   -3.0592   -1.0093 H       1  LIG1        0.0279
     10 H          -0.4556   -3.5650    0.5039 H       1  LIG1        0.0279
     11 O           1.0969   -0.1143   -0.0009 O.3     1  LIG1       -0.2864
     12 C           1.8355   -1.3388   -0.0012 C.3     2  LIG2       -0.0681
     13 H           2.8835   -1.1232   -0.0020 H       1  LIG1        0.0227
     14 H           1.5884   -1.9046    0.8727 H       1  LIG1        0.0227
     15 H           1.5872   -1.9049   -0.8746 H       1  LIG1        0.0227
     16 C          -1.0166    1.8536    0.0014 C.ar    1  LIG1        0.0368
     17 C           0.1956    2.5069    0.0205 C.ar    1  LIG1        0.0122
     18 C           0.0262    3.9290    0.0147 C.ar    1  LIG1        0.1976
     19 C          -1.3056    4.2790   -0.0075 C.ar    1  LIG1        0.0737
     20 S          -2.2951    2.9311   -0.0215 S.2     1  LIG1       -0.0829
     21 C           1.3609    1.9304    0.0410 C.3     1  LIG1       -0.0349
     22 H           2.0609    2.5588    0.5510 H       1  LIG1        0.0279
     23 H           1.6949    1.7652   -0.9621 H       1  LIG1        0.0279
     24 H           1.2860    0.9927    0.5509 H       1  LIG1        0.0279
     25 O           1.0231    4.7633    0.0291 O.3     1  LIG1       -0.2864
     26 C           2.2542    4.0357    0.0343 C.3     3  LIG3       -0.0681
     27 H           3.0745    4.7227    0.0460 H       2  LIG2        0.0227
     28 H           2.2974    3.4139    0.9041 H       2  LIG2        0.0227
     29 H           2.3120    3.4261   -0.8431 H       2  LIG2        0.0227
     30 C          -1.7706    5.4930   -0.0170 C.ar    1  LIG1        0.0361
     31 C          -1.0132    6.6432   -0.0232 C.ar    1  LIG1        0.0066
     32 C          -1.8369    7.8147   -0.0340 C.ar    1  LIG1        0.1306
     33 C          -3.1756    7.4910   -0.0345 C.ar    1  LIG1        0.0183
     34 S          -3.4074    5.8350   -0.0232 S.2     1  LIG1       -0.0920
     35 H          -4.1608    8.3391   -0.0426 H       1  LIG1        0.0730
     36 C           0.2863    6.6885   -0.0202 C.3     1  LIG1       -0.0351
     37 H           0.6112    7.5740    0.4851 H       1  LIG1        0.0279
     38 H           0.6452    6.7010   -1.0282 H       1  LIG1        0.0279
     39 H           0.6720    5.8277    0.4850 H       1  LIG1        0.0279
     40 O          -1.3549    9.0220   -0.0421 O.3     1  LIG1       -0.4943
     41 C           0.0740    8.9654   -0.0451 C.3     1  LIG1        0.0788
     42 H           0.4703    9.9593   -0.0519 H       1  LIG1        0.0660
     43 H           0.4125    8.4525    0.8309 H       1  LIG1        0.0660
     44 H           0.4084    8.4421   -0.9164 H       1  LIG1        0.0660
@<TRIPOS>BOND
     1    38    36    1
     2     9     7    1
     3    23    21    1
     4    44    41    1
     5    15    12    1
     6    29    26    1
     7    42    41    1
     8    41    40    1
     9    41    43    1
    10    35    33    1
    11    40    32    1
    12    33    32   ar
    13    33    34   ar
    14    32    31   ar
    15    31    36    1
    16    31    30   ar
    17    34    30   ar
    18    20    19   ar
    19    20    16   ar
    20    36    39    1
    21    36    37    1
    22    30    19    1
    23    19    18   ar
    24    13    12    1
    25    12    14    1
    26    11     3    1
    27     6     1    1
    28     7     2    1
    29     7    10    1
    30     7     8    1
    31     2     3   ar
    32     2     1   ar
    33     3     4   ar
    34     1     5   ar
    35     5     4   ar
    36     4    16    1
    37    16    17   ar
    38    18    17   ar
    39    18    25    1
    40    17    21    1
    41    26    27    1
    42    26    28    1
    43    21    24    1
    44    21    22    1
