@<TRIPOS>MOLECULE
mol_data/noopt/geoms/mol2/5il5il-5il5il-.out
 58 58 0 0 0
SMALL
GASTEIGER

@<TRIPOS>ATOM
      1 C          -2.0792   -1.7080   -0.0002 C.ar    1  LIG1       -0.0171
      2 C          -0.7020   -1.7080   -0.0002 C.ar    1  LIG1        0.0039
      3 C          -0.1766   -0.3757   -0.0002 C.ar    1  LIG1        0.1970
      4 C          -1.1831    0.5643    0.0006 C.ar    1  LIG1        0.0731
      5 S          -2.6937   -0.1528    0.0006 S.2     1  LIG1       -0.0920
      6 H          -2.8374   -2.7640   -0.0008 H       1  LIG1        0.0697
      7 C           0.0505   -2.7685   -0.0004 C.3     1  LIG1       -0.0356
      8 H           0.9694   -2.5538    0.5040 H       1  LIG1        0.0279
      9 H           0.2569   -3.0592   -1.0093 H       1  LIG1        0.0279
     10 H          -0.4556   -3.5650    0.5039 H       1  LIG1        0.0279
     11 O           1.0969   -0.1143   -0.0009 O.3     1  LIG1       -0.2864
     12 C           1.8355   -1.3388   -0.0012 C.3     2  LIG2       -0.0681
     13 H           2.8835   -1.1232   -0.0020 H       1  LIG1        0.0227
     14 H           1.5884   -1.9046    0.8727 H       1  LIG1        0.0227
     15 H           1.5872   -1.9049   -0.8746 H       1  LIG1        0.0227
     16 C          -1.0166    1.8536    0.0014 C.ar    1  LIG1        0.0368
     17 C           0.1958    2.5069    0.0015 C.ar    1  LIG1        0.0122
     18 C           0.0263    3.9290    0.0017 C.ar    1  LIG1        0.1976
     19 C          -1.3057    4.2790    0.0026 C.ar    1  LIG1        0.0737
     20 S          -2.2953    2.9311    0.0023 S.2     1  LIG1       -0.0829
     21 C           1.3613    1.9304    0.0013 C.3     1  LIG1       -0.0349
     22 H           2.0684    2.5552    0.5056 H       1  LIG1        0.0279
     23 H           1.6808    1.7723   -1.0077 H       1  LIG1        0.0279
     24 H           1.2936    0.9891    0.5055 H       1  LIG1        0.0279
     25 O           1.0233    4.7633    0.0012 O.3     1  LIG1       -0.2864
     26 C           2.2544    4.0357    0.0009 C.3     3  LIG3       -0.0681
     27 H           3.0747    4.7226    0.0003 H       2  LIG2        0.0227
     28 H           2.3052    3.4203    0.8748 H       2  LIG2        0.0227
     29 H           2.3044    3.4196   -0.8725 H       2  LIG2        0.0227
     30 C          -1.7708    5.4930    0.0035 C.ar    1  LIG1        0.0369
     31 C          -1.0134    6.6433    0.0038 C.ar    1  LIG1        0.0122
     32 C          -1.8373    7.8147    0.0042 C.ar    1  LIG1        0.1976
     33 C          -3.1759    7.4910    0.0050 C.ar    1  LIG1        0.0737
     34 S          -3.4076    5.8350    0.0046 S.2     1  LIG1       -0.0829
     35 C           0.2861    6.6886    0.0034 C.3     1  LIG1       -0.0349
     36 H           0.6122    7.5742    0.5078 H       1  LIG1        0.0279
     37 H           0.6423    6.7011   -1.0055 H       1  LIG1        0.0279
     38 H           0.6731    5.8279    0.5077 H       1  LIG1        0.0279
     39 O          -1.3553    9.0221    0.0038 O.3     1  LIG1       -0.2864
     40 C           0.0736    8.9657    0.0035 C.3     4  LIG4       -0.0681
     41 H           0.4699    9.9596    0.0030 H       3  LIG3        0.0227
     42 H           0.4102    8.4479    0.8774 H       3  LIG3        0.0227
     43 H           0.4099    8.4472   -0.8699 H       3  LIG3        0.0227
     44 C          -4.1612    8.3391    0.0062 C.ar    1  LIG1        0.0361
     45 C          -4.0401    9.7109    0.0065 C.ar    1  LIG1        0.0066
     46 C          -5.3211   10.3514    0.0071 C.ar    1  LIG1        0.1306
     47 C          -6.3459    9.4314    0.0079 C.ar    1  LIG1        0.0183
     48 S          -5.7643    7.8636    0.0073 S.2     1  LIG1       -0.0920
     49 H          -7.6156    9.7105    0.0092 H       1  LIG1        0.0730
     50 C          -2.9177   10.3673    0.0061 C.3     1  LIG1       -0.0351
     51 H          -3.0506   11.3016    0.5104 H       1  LIG1        0.0279
     52 H          -2.6100   10.5473   -1.0028 H       1  LIG1        0.0279
     53 H          -2.1686    9.7932    0.5104 H       1  LIG1        0.0279
     54 O          -5.4696   11.6429    0.0067 O.3     1  LIG1       -0.4943
     55 C          -4.1849   12.2710    0.0066 C.3     1  LIG1        0.0788
     56 H          -4.3076   13.3340    0.0061 H       1  LIG1        0.0660
     57 H          -3.6430   11.9749    0.8804 H       1  LIG1        0.0660
     58 H          -3.6429   11.9742   -0.8669 H       1  LIG1        0.0660
@<TRIPOS>BOND
     1     9     7    1
     2    23    21    1
     3    37    35    1
     4    52    50    1
     5    15    12    1
     6    29    26    1
     7    43    40    1
     8    58    55    1
     9    13    12    1
    10    12    14    1
    11    11     3    1
    12     6     1    1
    13     7     2    1
    14     7    10    1
    15     7     8    1
    16     1     2   ar
    17     1     5   ar
    18     2     3   ar
    19     3     4   ar
    20    27    26    1
    21     5     4   ar
    22     4    16    1
    23    26    28    1
    24    25    18    1
    25    21    17    1
    26    21    24    1
    27    21    22    1
    28    16    17   ar
    29    16    20   ar
    30    17    18   ar
    31    18    19   ar
    32    20    19   ar
    33    19    30    1
    34    41    40    1
    35    35    31    1
    36    35    38    1
    37    35    36    1
    38    40    42    1
    39    30    31   ar
    40    30    34   ar
    41    39    32    1
    42    31    32   ar
    43    32    33   ar
    44    34    33   ar
    45    33    44    1
    46    50    45    1
    47    50    53    1
    48    50    51    1
    49    56    55    1
    50    44    45   ar
    51    44    48   ar
    52    45    46   ar
    53    55    54    1
    54    55    57    1
    55    54    46    1
    56    46    47   ar
    57    48    47   ar
    58    47    49    1
