@<TRIPOS>MOLECULE
mol_data/noopt/geoms/mol2/5il5il.out
 30 30 0 0 0
SMALL
GASTEIGER

@<TRIPOS>ATOM
      1 C          -2.0792   -1.7080   -0.0002 C.ar    1  LIG1       -0.0171
      2 C          -0.7020   -1.7080   -0.0002 C.ar    1  LIG1        0.0039
      3 C          -0.1766   -0.3757   -0.0002 C.ar    1  LIG1        0.1970
      4 C          -1.1831    0.5643    0.0006 C.ar    1  LIG1        0.0731
      5 S          -2.6937   -0.1528    0.0006 S.2     1  LIG1       -0.0920
      6 H          -2.8374   -2.7640   -0.0008 H       1  LIG1        0.0697
      7 C           0.0505   -2.7685   -0.0004 C.3     1  LIG1       -0.0356
      8 H           0.9694   -2.5538    0.5040 H       1  LIG1        0.0279
      9 H           0.2569   -3.0592   -1.0093 H       1  LIG1        0.0279
     10 H          -0.4556   -3.5650    0.5039 H       1  LIG1        0.0279
     11 O           1.0969   -0.1143   -0.0009 O.3     1  LIG1       -0.2864
     12 C           1.8355   -1.3388   -0.0012 C.3     2  LIG2       -0.0681
     13 H           2.8835   -1.1232   -0.0020 H       1  LIG1        0.0227
     14 H           1.5884   -1.9046    0.8727 H       1  LIG1        0.0227
     15 H           1.5872   -1.9049   -0.8746 H       1  LIG1        0.0227
     16 C          -1.0166    1.8536    0.0014 C.ar    1  LIG1        0.0361
     17 C           0.1956    2.5069    0.0205 C.ar    1  LIG1        0.0066
     18 C           0.0262    3.9290    0.0147 C.ar    1  LIG1        0.1306
     19 C          -1.3056    4.2790   -0.0075 C.ar    1  LIG1        0.0183
     20 S          -2.2951    2.9311   -0.0215 S.2     1  LIG1       -0.0920
     21 H          -1.7706    5.4930   -0.0170 H       1  LIG1        0.0730
     22 C           1.3609    1.9304    0.0410 C.3     1  LIG1       -0.0351
     23 H           2.0609    2.5588    0.5510 H       1  LIG1        0.0279
     24 H           1.6949    1.7652   -0.9621 H       1  LIG1        0.0279
     25 H           1.2860    0.9927    0.5509 H       1  LIG1        0.0279
     26 O           1.0231    4.7633    0.0291 O.3     1  LIG1       -0.4943
     27 C           2.2542    4.0357    0.0343 C.3     1  LIG1        0.0788
     28 H           3.0745    4.7227    0.0460 H       1  LIG1        0.0660
     29 H           2.2974    3.4139    0.9041 H       1  LIG1        0.0660
     30 H           2.3120    3.4261   -0.8431 H       1  LIG1        0.0660
@<TRIPOS>BOND
     1     9     7    1
     2    24    22    1
     3    15    12    1
     4    30    27    1
     5    20    19   ar
     6    20    16   ar
     7    21    19    1
     8    19    18   ar
     9    13    12    1
    10    12    14    1
    11    11     3    1
    12     6     1    1
    13     7     2    1
    14     7    10    1
    15     7     8    1
    16     1     2   ar
    17     1     5   ar
    18     2     3   ar
    19     3     4   ar
    20     5     4   ar
    21     4    16    1
    22    16    17   ar
    23    18    17   ar
    24    18    26    1
    25    17    22    1
    26    26    27    1
    27    27    28    1
    28    27    29    1
    29    22    25    1
    30    22    23    1
