@<TRIPOS>MOLECULE
mol_data/noopt/geoms/mol2/5il5il-5il-.out
 44 44 0 0 0
SMALL
GASTEIGER

@<TRIPOS>ATOM
      1 C          -2.0792   -1.7080   -0.0002 C.ar    1  LIG1       -0.0171
      2 C          -0.7020   -1.7080   -0.0002 C.ar    1  LIG1        0.0039
      3 C          -0.1766   -0.3757   -0.0002 C.ar    1  LIG1        0.1970
      4 C          -1.1831    0.5643    0.0006 C.ar    1  LIG1        0.0731
      5 S          -2.6937   -0.1528    0.0006 S.2     1  LIG1       -0.0920
      6 H          -2.8374   -2.7640   -0.0008 H       1  LIG1        0.0697
      7 C           0.0505   -2.7685   -0.0004 C.3     1  LIG1       -0.0356
      8 H           0.9694   -2.5538    0.5040 H       1  LIG1        0.0279
      9 H           0.2569   -3.0592   -1.0093 H       1  LIG1        0.0279
     10 H          -0.4556   -3.5650    0.5039 H       1  LIG1        0.0279
     11 O           1.0969   -0.1143   -0.0009 O.3     1  LIG1       -0.2864
     12 C           1.8355   -1.3388   -0.0012 C.3     2  LIG2       -0.0681
     13 H           2.8835   -1.1232   -0.0020 H       1  LIG1        0.0227
     14 H           1.5884   -1.9046    0.8727 H       1  LIG1        0.0227
     15 H           1.5872   -1.9049   -0.8746 H       1  LIG1        0.0227
     16 C          -1.0166    1.8536    0.0014 C.ar    1  LIG1        0.0368
     17 C           0.1958    2.5069    0.0015 C.ar    1  LIG1        0.0122
     18 C           0.0263    3.9290    0.0017 C.ar    1  LIG1        0.1976
     19 C          -1.3057    4.2790    0.0026 C.ar    1  LIG1        0.0737
     20 S          -2.2953    2.9311    0.0023 S.2     1  LIG1       -0.0829
     21 C           1.3613    1.9304    0.0013 C.3     1  LIG1       -0.0349
     22 H           2.0684    2.5552    0.5056 H       1  LIG1        0.0279
     23 H           1.6808    1.7723   -1.0077 H       1  LIG1        0.0279
     24 H           1.2936    0.9891    0.5055 H       1  LIG1        0.0279
     25 O           1.0233    4.7633    0.0012 O.3     1  LIG1       -0.2864
     26 C           2.2544    4.0357    0.0009 C.3     3  LIG3       -0.0681
     27 H           3.0747    4.7226    0.0003 H       2  LIG2        0.0227
     28 H           2.3052    3.4203    0.8748 H       2  LIG2        0.0227
     29 H           2.3044    3.4196   -0.8725 H       2  LIG2        0.0227
     30 C          -1.7708    5.4930    0.0035 C.ar    1  LIG1        0.0361
     31 C          -1.0136    6.6432    0.0227 C.ar    1  LIG1        0.0066
     32 C          -1.8374    7.8147    0.0172 C.ar    1  LIG1        0.1306
     33 C          -3.1758    7.4910   -0.0051 C.ar    1  LIG1        0.0183
     34 S          -3.4074    5.8351   -0.0192 S.2     1  LIG1       -0.0920
     35 H          -4.1610    8.3391   -0.0144 H       1  LIG1        0.0730
     36 C           0.2858    6.6885    0.0432 C.3     1  LIG1       -0.0351
     37 H           0.6039    7.5737    0.5532 H       1  LIG1        0.0279
     38 H           0.6581    6.7015   -0.9599 H       1  LIG1        0.0279
     39 H           0.6646    5.8274    0.5531 H       1  LIG1        0.0279
     40 O          -1.3555    9.0221    0.0317 O.3     1  LIG1       -0.4943
     41 C           0.0734    8.9656    0.0369 C.3     1  LIG1        0.0788
     42 H           0.4696    9.9595    0.0487 H       1  LIG1        0.0660
     43 H           0.4064    8.4386    0.9067 H       1  LIG1        0.0660
     44 H           0.4135    8.4565   -0.8405 H       1  LIG1        0.0660
@<TRIPOS>BOND
     1     9     7    1
     2    23    21    1
     3    38    36    1
     4    15    12    1
     5    29    26    1
     6    44    41    1
     7    34    33   ar
     8    34    30   ar
     9    35    33    1
    10    33    32   ar
    11    13    12    1
    12    12    14    1
    13    11     3    1
    14     6     1    1
    15     7     2    1
    16     7    10    1
    17     7     8    1
    18     1     2   ar
    19     1     5   ar
    20     2     3   ar
    21     3     4   ar
    22    27    26    1
    23     5     4   ar
    24     4    16    1
    25    26    28    1
    26    25    18    1
    27    21    17    1
    28    21    24    1
    29    21    22    1
    30    16    17   ar
    31    16    20   ar
    32    17    18   ar
    33    18    19   ar
    34    20    19   ar
    35    19    30    1
    36    30    31   ar
    37    32    31   ar
    38    32    40    1
    39    31    36    1
    40    40    41    1
    41    41    42    1
    42    41    43    1
    43    36    39    1
    44    36    37    1
