@<TRIPOS>MOLECULE
mol_data/noopt/geoms/mol2/5il5il5il5il-.out
 58 58 0 0 0
SMALL
GASTEIGER

@<TRIPOS>ATOM
      1 C          -2.0792   -1.7080   -0.0002 C.ar    1  LIG1       -0.0171
      2 C          -0.7020   -1.7080   -0.0002 C.ar    1  LIG1        0.0039
      3 C          -0.1766   -0.3757   -0.0002 C.ar    1  LIG1        0.1970
      4 C          -1.1831    0.5643    0.0006 C.ar    1  LIG1        0.0731
      5 S          -2.6937   -0.1528    0.0006 S.2     1  LIG1       -0.0920
      6 H          -2.8374   -2.7640   -0.0008 H       1  LIG1        0.0697
      7 C           0.0505   -2.7685   -0.0004 C.3     1  LIG1       -0.0356
      8 H           0.9694   -2.5538    0.5040 H       1  LIG1        0.0279
      9 H           0.2569   -3.0592   -1.0093 H       1  LIG1        0.0279
     10 H          -0.4556   -3.5650    0.5039 H       1  LIG1        0.0279
     11 O           1.0969   -0.1143   -0.0009 O.3     1  LIG1       -0.2864
     12 C           1.8355   -1.3388   -0.0012 C.3     2  LIG2       -0.0681
     13 H           2.8835   -1.1232   -0.0020 H       1  LIG1        0.0227
     14 H           1.5884   -1.9046    0.8727 H       1  LIG1        0.0227
     15 H           1.5872   -1.9049   -0.8746 H       1  LIG1        0.0227
     16 C          -1.0166    1.8536    0.0014 C.ar    1  LIG1        0.0368
     17 C           0.1956    2.5069    0.0205 C.ar    1  LIG1        0.0122
     18 C           0.0262    3.9290    0.0147 C.ar    1  LIG1        0.1976
     19 C          -1.3056    4.2790   -0.0075 C.ar    1  LIG1        0.0737
     20 S          -2.2951    2.9311   -0.0215 S.2     1  LIG1       -0.0829
     21 C           1.3609    1.9304    0.0410 C.3     1  LIG1       -0.0349
     22 H           2.0609    2.5588    0.5510 H       1  LIG1        0.0279
     23 H           1.6949    1.7652   -0.9621 H       1  LIG1        0.0279
     24 H           1.2860    0.9927    0.5509 H       1  LIG1        0.0279
     25 O           1.0231    4.7633    0.0291 O.3     1  LIG1       -0.2864
     26 C           2.2542    4.0357    0.0343 C.3     3  LIG3       -0.0681
     27 H           3.0745    4.7227    0.0460 H       2  LIG2        0.0227
     28 H           2.2974    3.4139    0.9041 H       2  LIG2        0.0227
     29 H           2.3120    3.4261   -0.8431 H       2  LIG2        0.0227
     30 C          -1.7706    5.4930   -0.0170 C.ar    1  LIG1        0.0369
     31 C          -1.0132    6.6432   -0.0232 C.ar    1  LIG1        0.0122
     32 C          -1.8369    7.8147   -0.0340 C.ar    1  LIG1        0.1976
     33 C          -3.1756    7.4910   -0.0345 C.ar    1  LIG1        0.0737
     34 S          -3.4074    5.8350   -0.0232 S.2     1  LIG1       -0.0829
     35 C           0.2863    6.6885   -0.0202 C.3     1  LIG1       -0.0349
     36 H           0.6112    7.5740    0.4851 H       1  LIG1        0.0279
     37 H           0.6452    6.7010   -1.0282 H       1  LIG1        0.0279
     38 H           0.6720    5.8277    0.4850 H       1  LIG1        0.0279
     39 O          -1.3549    9.0220   -0.0421 O.3     1  LIG1       -0.2864
     40 C           0.0740    8.9654   -0.0451 C.3     4  LIG4       -0.0681
     41 H           0.4703    9.9593   -0.0519 H       3  LIG3        0.0227
     42 H           0.4125    8.4525    0.8309 H       3  LIG3        0.0227
     43 H           0.4084    8.4421   -0.9164 H       3  LIG3        0.0227
     44 C          -4.1608    8.3391   -0.0426 C.ar    1  LIG1        0.0361
     45 C          -4.0397    9.7110   -0.0479 C.ar    1  LIG1        0.0066
     46 C          -5.3206   10.3514   -0.0572 C.ar    1  LIG1        0.1306
     47 C          -6.3455    9.4315   -0.0576 C.ar    1  LIG1        0.0183
     48 S          -5.7640    7.8637   -0.0478 S.2     1  LIG1       -0.0920
     49 H          -7.6151    9.7107   -0.0644 H       1  LIG1        0.0730
     50 C          -2.9172   10.3673   -0.0453 C.3     1  LIG1       -0.0351
     51 H          -3.0511   11.3010    0.4598 H       1  LIG1        0.0279
     52 H          -2.6075   10.5484   -1.0535 H       1  LIG1        0.0279
     53 H          -2.1692    9.7926    0.4598 H       1  LIG1        0.0279
     54 O          -5.4690   11.6430   -0.0642 O.3     1  LIG1       -0.4943
     55 C          -4.1843   12.2710   -0.0669 C.3     1  LIG1        0.0788
     56 H          -4.3069   13.3339   -0.0729 H       1  LIG1        0.0660
     57 H          -3.6429   11.9794    0.8088 H       1  LIG1        0.0660
     58 H          -3.6418   11.9697   -0.9385 H       1  LIG1        0.0660
@<TRIPOS>BOND
     1    52    50    1
     2    37    35    1
     3     9     7    1
     4    23    21    1
     5    58    55    1
     6    43    40    1
     7    15    12    1
     8    29    26    1
     9    56    55    1
    10    55    54    1
    11    55    57    1
    12    49    47    1
    13    54    46    1
    14    47    46   ar
    15    47    48   ar
    16    46    45   ar
    17    41    40    1
    18    45    50    1
    19    45    44   ar
    20    48    44   ar
    21    50    53    1
    22    50    51    1
    23    40    42    1
    24    44    33    1
    25    39    32    1
    26    33    32   ar
    27    33    34   ar
    28    32    31   ar
    29    31    35    1
    30    31    30   ar
    31    34    30   ar
    32    20    19   ar
    33    20    16   ar
    34    35    38    1
    35    35    36    1
    36    30    19    1
    37    19    18   ar
    38    13    12    1
    39    12    14    1
    40    11     3    1
    41     6     1    1
    42     7     2    1
    43     7    10    1
    44     7     8    1
    45     1     2   ar
    46     1     5   ar
    47     2     3   ar
    48     3     4   ar
    49     4     5   ar
    50     4    16    1
    51    16    17   ar
    52    18    17   ar
    53    18    25    1
    54    17    21    1
    55    26    27    1
    56    26    28    1
    57    21    24    1
    58    21    22    1
