@<TRIPOS>MOLECULE
mol_data/noopt/geoms/mol2/5il5il-.out
 30 30 0 0 0
SMALL
GASTEIGER

@<TRIPOS>ATOM
      1 C          -2.0792   -1.7080   -0.0002 C.ar    1  LIG1       -0.0171
      2 C          -0.7020   -1.7080   -0.0002 C.ar    1  LIG1        0.0039
      3 C          -0.1766   -0.3757   -0.0002 C.ar    1  LIG1        0.1970
      4 C          -1.1831    0.5643    0.0006 C.ar    1  LIG1        0.0731
      5 S          -2.6937   -0.1528    0.0006 S.2     1  LIG1       -0.0920
      6 H          -2.8374   -2.7640   -0.0008 H       1  LIG1        0.0697
      7 C           0.0505   -2.7685   -0.0004 C.3     1  LIG1       -0.0356
      8 H           0.9694   -2.5538    0.5040 H       1  LIG1        0.0279
      9 H           0.2569   -3.0592   -1.0093 H       1  LIG1        0.0279
     10 H          -0.4556   -3.5650    0.5039 H       1  LIG1        0.0279
     11 O           1.0969   -0.1143   -0.0009 O.3     1  LIG1       -0.2864
     12 C           1.8355   -1.3388   -0.0012 C.3     2  LIG2       -0.0681
     13 H           2.8835   -1.1232   -0.0020 H       1  LIG1        0.0227
     14 H           1.5884   -1.9046    0.8727 H       1  LIG1        0.0227
     15 H           1.5872   -1.9049   -0.8746 H       1  LIG1        0.0227
     16 C          -1.0166    1.8536    0.0014 C.ar    1  LIG1        0.0361
     17 C           0.1958    2.5069    0.0015 C.ar    1  LIG1        0.0066
     18 C           0.0263    3.9290    0.0017 C.ar    1  LIG1        0.1306
     19 C          -1.3057    4.2790    0.0026 C.ar    1  LIG1        0.0183
     20 S          -2.2953    2.9311    0.0023 S.2     1  LIG1       -0.0920
     21 H          -1.7708    5.4930    0.0035 H       1  LIG1        0.0730
     22 C           1.3613    1.9304    0.0013 C.3     1  LIG1       -0.0351
     23 H           2.0684    2.5552    0.5056 H       1  LIG1        0.0279
     24 H           1.6808    1.7723   -1.0077 H       1  LIG1        0.0279
     25 H           1.2936    0.9891    0.5055 H       1  LIG1        0.0279
     26 O           1.0233    4.7633    0.0012 O.3     1  LIG1       -0.4943
     27 C           2.2544    4.0357    0.0009 C.3     1  LIG1        0.0788
     28 H           3.0747    4.7226    0.0003 H       1  LIG1        0.0660
     29 H           2.3052    3.4203    0.8748 H       1  LIG1        0.0660
     30 H           2.3044    3.4196   -0.8725 H       1  LIG1        0.0660
@<TRIPOS>BOND
     1     9     7    1
     2    24    22    1
     3    15    12    1
     4    30    27    1
     5    13    12    1
     6    12    14    1
     7    11     3    1
     8     6     1    1
     9     7     2    1
    10     7    10    1
    11     7     8    1
    12     1     2   ar
    13     1     5   ar
    14     2     3   ar
    15     3     4   ar
    16    28    27    1
    17     5     4   ar
    18     4    16    1
    19    27    26    1
    20    27    29    1
    21    26    18    1
    22    22    17    1
    23    22    25    1
    24    22    23    1
    25    16    17   ar
    26    16    20   ar
    27    17    18   ar
    28    18    19   ar
    29    20    19   ar
    30    19    21    1
