@<TRIPOS>MOLECULE
mol_data/noopt/geoms/mol2/5il5il-5il-5il-.out
 58 58 0 0 0
SMALL
GASTEIGER

@<TRIPOS>ATOM
      1 C          -2.0792   -1.7080   -0.0002 C.ar    1  LIG1       -0.0171
      2 C          -0.7020   -1.7080   -0.0002 C.ar    1  LIG1        0.0039
      3 C          -0.1766   -0.3757   -0.0002 C.ar    1  LIG1        0.1970
      4 C          -1.1831    0.5643    0.0006 C.ar    1  LIG1        0.0731
      5 S          -2.6937   -0.1528    0.0006 S.2     1  LIG1       -0.0920
      6 H          -2.8374   -2.7640   -0.0008 H       1  LIG1        0.0697
      7 C           0.0505   -2.7685   -0.0004 C.3     1  LIG1       -0.0356
      8 H           0.9694   -2.5538    0.5040 H       1  LIG1        0.0279
      9 H           0.2569   -3.0592   -1.0093 H       1  LIG1        0.0279
     10 H          -0.4556   -3.5650    0.5039 H       1  LIG1        0.0279
     11 O           1.0969   -0.1143   -0.0009 O.3     1  LIG1       -0.2864
     12 C           1.8355   -1.3388   -0.0012 C.3     2  LIG2       -0.0681
     13 H           2.8835   -1.1232   -0.0020 H       1  LIG1        0.0227
     14 H           1.5884   -1.9046    0.8727 H       1  LIG1        0.0227
     15 H           1.5872   -1.9049   -0.8746 H       1  LIG1        0.0227
     16 C          -1.0166    1.8536    0.0014 C.ar    1  LIG1        0.0368
     17 C           0.1958    2.5069    0.0015 C.ar    1  LIG1        0.0122
     18 C           0.0263    3.9290    0.0017 C.ar    1  LIG1        0.1976
     19 C          -1.3057    4.2790    0.0026 C.ar    1  LIG1        0.0737
     20 S          -2.2953    2.9311    0.0023 S.2     1  LIG1       -0.0829
     21 C           1.3613    1.9304    0.0013 C.3     1  LIG1       -0.0349
     22 H           2.0684    2.5552    0.5056 H       1  LIG1        0.0279
     23 H           1.6808    1.7723   -1.0077 H       1  LIG1        0.0279
     24 H           1.2936    0.9891    0.5055 H       1  LIG1        0.0279
     25 O           1.0233    4.7633    0.0012 O.3     1  LIG1       -0.2864
     26 C           2.2544    4.0357    0.0009 C.3     3  LIG3       -0.0681
     27 H           3.0747    4.7226    0.0003 H       2  LIG2        0.0227
     28 H           2.3052    3.4203    0.8748 H       2  LIG2        0.0227
     29 H           2.3044    3.4196   -0.8725 H       2  LIG2        0.0227
     30 C          -1.7708    5.4930    0.0035 C.ar    1  LIG1        0.0369
     31 C          -1.0136    6.6432    0.0227 C.ar    1  LIG1        0.0122
     32 C          -1.8374    7.8147    0.0172 C.ar    1  LIG1        0.1976
     33 C          -3.1758    7.4910   -0.0051 C.ar    1  LIG1        0.0737
     34 S          -3.4074    5.8351   -0.0192 S.2     1  LIG1       -0.0829
     35 C           0.2858    6.6885    0.0432 C.3     1  LIG1       -0.0349
     36 H           0.6039    7.5737    0.5532 H       1  LIG1        0.0279
     37 H           0.6581    6.7015   -0.9599 H       1  LIG1        0.0279
     38 H           0.6646    5.8274    0.5531 H       1  LIG1        0.0279
     39 O          -1.3555    9.0221    0.0317 O.3     1  LIG1       -0.2864
     40 C           0.0734    8.9656    0.0369 C.3     4  LIG4       -0.0681
     41 H           0.4696    9.9595    0.0487 H       3  LIG3        0.0227
     42 H           0.4064    8.4386    0.9067 H       3  LIG3        0.0227
     43 H           0.4135    8.4565   -0.8405 H       3  LIG3        0.0227
     44 C          -4.1610    8.3391   -0.0144 C.ar    1  LIG1        0.0361
     45 C          -4.0399    9.7110   -0.0205 C.ar    1  LIG1        0.0066
     46 C          -5.3208   10.3515   -0.0311 C.ar    1  LIG1        0.1306
     47 C          -6.3457    9.4315   -0.0316 C.ar    1  LIG1        0.0183
     48 S          -5.7642    7.8638   -0.0205 S.2     1  LIG1       -0.0920
     49 H          -7.6153    9.7107   -0.0396 H       1  LIG1        0.0730
     50 C          -2.9174   10.3673   -0.0175 C.3     1  LIG1       -0.0351
     51 H          -3.0514   11.3010    0.4878 H       1  LIG1        0.0279
     52 H          -2.6075   10.5486   -1.0255 H       1  LIG1        0.0279
     53 H          -2.1695    9.7925    0.4877 H       1  LIG1        0.0279
     54 O          -5.4692   11.6430   -0.0391 O.3     1  LIG1       -0.4943
     55 C          -4.1845   12.2710   -0.0421 C.3     1  LIG1        0.0788
     56 H          -4.3070   13.3340   -0.0488 H       1  LIG1        0.0660
     57 H          -3.6431   11.9800    0.8339 H       1  LIG1        0.0660
     58 H          -3.6419   11.9691   -0.9134 H       1  LIG1        0.0660
@<TRIPOS>BOND
     1    52    50    1
     2     9     7    1
     3    23    21    1
     4    37    35    1
     5    58    55    1
     6    15    12    1
     7    29    26    1
     8    43    40    1
     9    56    55    1
    10    55    54    1
    11    55    57    1
    12    49    47    1
    13    54    46    1
    14    47    46   ar
    15    47    48   ar
    16    46    45   ar
    17    45    50    1
    18    45    44   ar
    19    48    44   ar
    20    34    33   ar
    21    34    30   ar
    22    50    53    1
    23    50    51    1
    24    44    33    1
    25    33    32   ar
    26    13    12    1
    27    12    14    1
    28    11     3    1
    29     6     1    1
    30     7     2    1
    31     7    10    1
    32     7     8    1
    33     1     2   ar
    34     1     5   ar
    35     2     3   ar
    36     3     4   ar
    37    27    26    1
    38     4     5   ar
    39     4    16    1
    40    26    28    1
    41    25    18    1
    42    21    17    1
    43    21    24    1
    44    21    22    1
    45    16    17   ar
    46    16    20   ar
    47    17    18   ar
    48    18    19   ar
    49    20    19   ar
    50    19    30    1
    51    30    31   ar
    52    32    31   ar
    53    32    39    1
    54    31    35    1
    55    40    41    1
    56    40    42    1
    57    35    38    1
    58    35    36    1
