@<TRIPOS>MOLECULE
mol_data/noopt/geoms/mol2/5la.out
 13 13 0 0 0
SMALL
GASTEIGER

@<TRIPOS>ATOM
      1 C          -2.0792   -1.7080   -0.0002 C.ar    1  LIG1        0.0174
      2 C          -0.7020   -1.7080   -0.0002 C.ar    1  LIG1        0.1271
      3 C          -0.1766   -0.3757   -0.0002 C.ar    1  LIG1       -0.0129
      4 C          -1.1831    0.5643    0.0006 C.ar    1  LIG1       -0.0208
      5 S          -2.6937   -0.1528    0.0006 S.2     1  LIG1       -0.1013
      6 H          -2.8374   -2.7640   -0.0008 H       1  LIG1        0.0730
      7 H          -1.0166    1.8536    0.0014 H       1  LIG1        0.0694
      8 O           0.0503   -2.7682   -0.0004 O.3     1  LIG1       -0.4946
      9 C          -0.7728   -3.9376   -0.0005 C.3     1  LIG1        0.0788
     10 H          -0.1533   -4.8099   -0.0009 H       1  LIG1        0.0660
     11 H          -1.3905   -3.9391    0.8733 H       1  LIG1        0.0660
     12 H          -1.3908   -3.9387   -0.8740 H       1  LIG1        0.0660
     13 H           1.0969   -0.1143   -0.0009 H       1  LIG1        0.0659
@<TRIPOS>BOND
     1    12     9    1
     2    13     3    1
     3    10     9    1
     4     6     1    1
     5     9     8    1
     6     9    11    1
     7     8     2    1
     8     1     2   ar
     9     1     5   ar
    10     2     3   ar
    11     3     4   ar
    12     4     5   ar
    13     4     7    1
