@<TRIPOS>MOLECULE
mol_data/noopt/geoms/mol2/5la5la5la5la.out
 46 40 0 0 0
SMALL
GASTEIGER

@<TRIPOS>ATOM
      1 C          -2.0792   -1.7080   -0.0002 C.2     1  LIG1        0.0216
      2 C          -0.7020   -1.7080   -0.0002 C.2     1  LIG1        0.1685
      3 C          -0.1766   -0.3757   -0.0002 C.3     2  LIG2        0.0000
      4 C          -1.1831    0.5643    0.0006 C.2     1  LIG1        0.0396
      5 S          -2.6937   -0.1528    0.0006 S.3     1  LIG1       -0.0915
      6 H          -2.8374   -2.7640   -0.0008 H       1  LIG1        0.0731
      7 O           0.0503   -2.7682   -0.0004 O.2     1  LIG1       -0.4909
      8 C          -0.7728   -3.9376   -0.0005 C.3     1  LIG1        0.0790
      9 H          -0.1533   -4.8099   -0.0009 H       1  LIG1        0.0660
     10 H          -1.3905   -3.9391    0.8733 H       1  LIG1        0.0660
     11 H          -1.3908   -3.9387   -0.8740 H       1  LIG1        0.0660
     12 H           1.0969   -0.1143   -0.0009 H       3  LIG3        0.0194
     13 C          -1.0166    1.8536    0.0014 C.2     1  LIG1        0.0466
     14 C           0.1956    2.5069    0.0205 C.3     1  LIG1        0.2155
     15 C           0.0262    3.9290    0.0147 C.3     3  LIG3        0.0000
     16 C          -1.3056    4.2790   -0.0075 C.2     1  LIG1        0.0396
     17 S          -2.2951    2.9311   -0.0215 S.3     1  LIG1       -0.0874
     18 O           1.3607    1.9305    0.0410 O.3     1  LIG1       -0.2146
     19 C           1.1906    0.5107    0.0485 C.3     4  LIG4       -0.0776
     20 H           2.1498    0.0366    0.0652 H       3  LIG3        0.0194
     21 H           0.6352    0.2225    0.9165 H       3  LIG3        0.0194
     22 H           0.6597    0.2104   -0.8306 H       3  LIG3        0.0194
     23 H           1.0231    4.7632    0.0291 H       5  LIG5        0.0194
     24 C          -1.7706    5.4930   -0.0170 C.2     1  LIG1        0.0427
     25 C          -1.0132    6.6432   -0.0232 C.3     1  LIG1        0.2152
     26 C          -1.8369    7.8147   -0.0340 C.3     5  LIG5        0.0000
     27 C          -3.1756    7.4910   -0.0345 C.3     1  LIG1        0.0979
     28 S          -3.4074    5.8350   -0.0232 S.3     1  LIG1       -0.1095
     29 O           0.2861    6.6885   -0.0202 O.3     1  LIG1       -0.2146
     30 C           0.8100    5.3579   -0.0191 C.3     6  LIG6       -0.0776
     31 H           1.8793    5.3956   -0.0167 H       5  LIG5        0.0194
     32 H           0.4694    4.8411    0.8538 H       5  LIG5        0.0194
     33 H           0.4733    4.8413   -0.8935 H       5  LIG5        0.0194
     34 H          -1.3549    9.0220   -0.0421 H       6  LIG6        0.0194
     35 C          -4.1608    8.3391   -0.0426 C.ar    1  LIG1        0.0561
     36 C          -4.0399    9.7109   -0.0290 C.ar    1  LIG1        0.1906
     37 C          -5.3207   10.3514   -0.0442 C.ar    1  LIG1       -0.0076
     38 C          -6.3454    9.4315   -0.0677 C.ar    1  LIG1       -0.0203
     39 S          -5.7637    7.8638   -0.0716 S.2     1  LIG1       -0.0962
     40 H          -7.6149    9.7107   -0.0849 H       1  LIG1        0.0694
     41 O          -2.9178   10.3671   -0.0056 O.3     1  LIG1       -0.2870
     42 C          -1.8254    9.4443    0.0029 C.3     7  LIG7       -0.0776
     43 H          -0.9021    9.9848    0.0220 H       6  LIG6        0.0194
     44 H          -1.8918    8.8210    0.8701 H       6  LIG6        0.0194
     45 H          -1.8649    8.8367   -0.8769 H       6  LIG6        0.0194
     46 H          -5.4693   11.6429   -0.0363 H       1  LIG1        0.0661
@<TRIPOS>BOND
     1    33    30    1
     2    45    42    1
     3    11     8    1
     4    22    19    1
     5    40    38    1
     6    39    38   ar
     7    39    35   ar
     8    38    37   ar
     9    37    46    1
    10    37    36   ar
    11    35    27    1
    12    35    36   ar
    13    34    42    1
    14    27    28    1
    15    36    41    1
    16    25    29    1
    17    25    24    1
    18    28    24    1
    19    17    16    1
    20    17    13    1
    21    30    31    1
    22    30    23    1
    23    30    32    1
    24    24    16    2
    25    12    19    1
    26     9     8    1
    27     6     1    1
    28     8     7    1
    29     8    10    1
    30     7     2    1
    31     2     1    2
    32     1     5    1
    33     5     4    1
    34     4    13    2
    35    13    14    1
    36    42    43    1
    37    42    44    1
    38    14    18    1
    39    19    20    1
    40    19    21    1
