@<TRIPOS>MOLECULE
mol_data/noopt/geoms/mol2/5la5la-5la-5la.out
 46 44 0 0 0
SMALL
GASTEIGER

@<TRIPOS>ATOM
      1 C          -2.0792   -1.7080   -0.0002 C.2     1  LIG1        0.0213
      2 C          -0.7020   -1.7080   -0.0002 C.2     1  LIG1        0.1685
      3 C          -0.1766   -0.3757   -0.0002 C.3     1  LIG1        0.0070
      4 C          -1.1831    0.5643    0.0006 C.2     1  LIG1        0.0069
      5 S          -2.6937   -0.1528    0.0006 S.3     1  LIG1       -0.0967
      6 H          -2.8374   -2.7640   -0.0008 H       1  LIG1        0.0731
      7 O           0.0503   -2.7682   -0.0004 O.2     1  LIG1       -0.4909
      8 C          -0.7728   -3.9376   -0.0005 C.3     1  LIG1        0.0790
      9 H          -0.1533   -4.8099   -0.0009 H       1  LIG1        0.0660
     10 H          -1.3905   -3.9391    0.8733 H       1  LIG1        0.0660
     11 H          -1.3908   -3.9387   -0.8740 H       1  LIG1        0.0660
     12 H           1.0969   -0.1143   -0.0009 H       1  LIG1        0.0367
     13 C          -1.0166    1.8536    0.0014 C.2     1  LIG1        0.0384
     14 C           0.1958    2.5069    0.0015 C.3     1  LIG1        0.1737
     15 C           0.0263    3.9290    0.0017 C.3     2  LIG2        0.0000
     16 C          -1.3057    4.2790    0.0026 C.2     1  LIG1        0.0399
     17 S          -2.2953    2.9311    0.0023 S.3     1  LIG1       -0.0879
     18 O           1.3610    1.9305    0.0013 O.3     1  LIG1       -0.3647
     19 C           1.1911    0.5106    0.0011 C.3     1  LIG1        0.0379
     20 H           2.1504    0.0366    0.0007 H       1  LIG1        0.0524
     21 H           0.6482    0.2162    0.8749 H       1  LIG1        0.0524
     22 H           0.6476    0.2165   -0.8724 H       1  LIG1        0.0524
     23 H           1.0233    4.7632    0.0012 H       2  LIG2        0.0194
     24 C          -1.7708    5.4930    0.0035 C.2     1  LIG1        0.0466
     25 C          -1.0136    6.6432    0.0227 C.3     1  LIG1        0.2155
     26 C          -1.8374    7.8147    0.0172 C.2     1  LIG1       -0.0457
     27 C          -3.1758    7.4910   -0.0051 C.2     1  LIG1        0.0298
     28 S          -3.4074    5.8351   -0.0192 S.3     1  LIG1       -0.0882
     29 O           0.2855    6.6885    0.0432 O.3     1  LIG1       -0.2146
     30 C           0.8094    5.3579    0.0506 C.3     3  LIG3       -0.0776
     31 H           1.8786    5.3956    0.0673 H       2  LIG2        0.0194
     32 H           0.4572    4.8407    0.9187 H       2  LIG2        0.0194
     33 H           0.4844    4.8417   -0.8284 H       2  LIG2        0.0194
     34 H          -1.3555    9.0220    0.0317 H       1  LIG1        0.0629
     35 C          -4.1610    8.3391   -0.0144 C.ar    1  LIG1        0.0675
     36 C          -4.0401    9.7110   -0.0016 C.ar    1  LIG1        0.1353
     37 C          -5.3209   10.3515   -0.0181 C.ar    1  LIG1       -0.0123
     38 C          -6.3455    9.4316   -0.0417 C.ar    1  LIG1       -0.0202
     39 S          -5.7639    7.8638   -0.0443 S.2     1  LIG1       -0.0924
     40 H          -7.6151    9.7108   -0.0601 H       1  LIG1        0.0695
     41 O          -2.9180   10.3671    0.0222 O.3     1  LIG1       -0.4939
     42 C          -1.8256    9.4444    0.0309 C.3     1  LIG1        0.0788
     43 H          -0.9023    9.9848    0.0504 H       1  LIG1        0.0660
     44 H          -1.8922    8.8209    0.8980 H       1  LIG1        0.0660
     45 H          -1.8648    8.8369   -0.8490 H       1  LIG1        0.0660
     46 H          -5.4695   11.6429   -0.0111 H       1  LIG1        0.0660
@<TRIPOS>BOND
     1    11     8    1
     2    22    19    1
     3    45    42    1
     4    33    30    1
     5    40    38    1
     6    39    38   ar
     7    39    35   ar
     8    38    37   ar
     9    28    27    1
    10    28    24    1
    11    37    46    1
    12    37    36   ar
    13    35    27    1
    14    35    36   ar
    15    27    26    2
    16    36    41    1
    17    12     3    1
    18     9     8    1
    19     6     1    1
    20     8     7    1
    21     8    10    1
    22     7     2    1
    23     1     2    2
    24     1     5    1
    25     3     4    1
    26     4     5    1
    27     4    13    2
    28    20    19    1
    29    19    18    1
    30    19    21    1
    31    23    30    1
    32    18    14    1
    33    13    14    1
    34    13    17    1
    35    17    16    1
    36    16    24    2
    37    24    25    1
    38    26    34    1
    39    41    42    1
    40    25    29    1
    41    42    43    1
    42    42    44    1
    43    30    31    1
    44    30    32    1
