@<TRIPOS>MOLECULE
mol_data/noopt/geoms/mol2/5la5la5la-.out
 35 33 0 0 0
SMALL
GASTEIGER

@<TRIPOS>ATOM
      1 C          -2.0792   -1.7080   -0.0002 C.2     1  LIG1        0.0216
      2 C          -0.7020   -1.7080   -0.0002 C.2     1  LIG1        0.1685
      3 C          -0.1766   -0.3757   -0.0002 C.3     2  LIG2        0.0000
      4 C          -1.1831    0.5643    0.0006 C.2     1  LIG1        0.0396
      5 S          -2.6937   -0.1528    0.0006 S.3     1  LIG1       -0.0915
      6 H          -2.8374   -2.7640   -0.0008 H       1  LIG1        0.0731
      7 O           0.0503   -2.7682   -0.0004 O.2     1  LIG1       -0.4909
      8 C          -0.7728   -3.9376   -0.0005 C.3     1  LIG1        0.0790
      9 H          -0.1533   -4.8099   -0.0009 H       1  LIG1        0.0660
     10 H          -1.3905   -3.9391    0.8733 H       1  LIG1        0.0660
     11 H          -1.3908   -3.9387   -0.8740 H       1  LIG1        0.0660
     12 H           1.0969   -0.1143   -0.0009 H       2  LIG2        0.0194
     13 C          -1.0166    1.8536    0.0014 C.2     1  LIG1        0.0466
     14 C           0.1956    2.5069    0.0205 C.3     1  LIG1        0.2155
     15 C           0.0262    3.9290    0.0147 C.2     1  LIG1       -0.0457
     16 C          -1.3056    4.2790   -0.0075 C.2     1  LIG1        0.0298
     17 S          -2.2951    2.9311   -0.0215 S.3     1  LIG1       -0.0882
     18 O           1.3607    1.9305    0.0410 O.3     1  LIG1       -0.2146
     19 C           1.1906    0.5107    0.0485 C.3     3  LIG3       -0.0776
     20 H           2.1498    0.0366    0.0652 H       2  LIG2        0.0194
     21 H           0.6352    0.2225    0.9165 H       2  LIG2        0.0194
     22 H           0.6597    0.2104   -0.8306 H       2  LIG2        0.0194
     23 H           1.0231    4.7632    0.0291 H       1  LIG1        0.0629
     24 C          -1.7706    5.4930   -0.0170 C.ar    1  LIG1        0.0675
     25 C          -1.0134    6.6433   -0.0043 C.ar    1  LIG1        0.1353
     26 C          -1.8371    7.8147   -0.0210 C.ar    1  LIG1       -0.0123
     27 C          -3.1754    7.4910   -0.0446 C.ar    1  LIG1       -0.0202
     28 S          -3.4072    5.8350   -0.0470 S.2     1  LIG1       -0.0924
     29 H          -4.1606    8.3390   -0.0631 H       1  LIG1        0.0695
     30 O           0.2857    6.6886    0.0196 O.3     1  LIG1       -0.4939
     31 C           0.8096    5.3581    0.0283 C.3     1  LIG1        0.0788
     32 H           1.8788    5.3958    0.0478 H       1  LIG1        0.0660
     33 H           0.4551    4.8408    0.8953 H       1  LIG1        0.0660
     34 H           0.4869    4.8419   -0.8517 H       1  LIG1        0.0660
     35 H          -1.3552    9.0221   -0.0141 H       1  LIG1        0.0660
@<TRIPOS>BOND
     1    11     8    1
     2    34    31    1
     3    22    19    1
     4    29    27    1
     5    28    27   ar
     6    28    24   ar
     7    27    26   ar
     8    17    16    1
     9    17    13    1
    10    26    35    1
    11    26    25   ar
    12    24    16    1
    13    24    25   ar
    14    16    15    2
    15    25    30    1
    16    12    19    1
    17     9     8    1
    18     6     1    1
    19     8     7    1
    20     8    10    1
    21     7     2    1
    22     1     2    2
    23     1     5    1
    24     5     4    1
    25     4    13    2
    26    13    14    1
    27    15    23    1
    28    30    31    1
    29    14    18    1
    30    31    32    1
    31    31    33    1
    32    19    20    1
    33    19    21    1
