@<TRIPOS>MOLECULE
mol_data/noopt/geoms/mol2/5la5la-5la-5la-.out
 46 42 0 0 0
SMALL
GASTEIGER

@<TRIPOS>ATOM
      1 C          -2.0792   -1.7080   -0.0002 C.2     1  LIG1        0.0213
      2 C          -0.7020   -1.7080   -0.0002 C.2     1  LIG1        0.1685
      3 C          -0.1766   -0.3757   -0.0002 C.3     1  LIG1        0.0070
      4 C          -1.1831    0.5643    0.0006 C.2     1  LIG1        0.0069
      5 S          -2.6937   -0.1528    0.0006 S.3     1  LIG1       -0.0967
      6 H          -2.8374   -2.7640   -0.0008 H       1  LIG1        0.0731
      7 O           0.0503   -2.7682   -0.0004 O.2     1  LIG1       -0.4909
      8 C          -0.7728   -3.9376   -0.0005 C.3     1  LIG1        0.0790
      9 H          -0.1533   -4.8099   -0.0009 H       1  LIG1        0.0660
     10 H          -1.3905   -3.9391    0.8733 H       1  LIG1        0.0660
     11 H          -1.3908   -3.9387   -0.8740 H       1  LIG1        0.0660
     12 H           1.0969   -0.1143   -0.0009 H       1  LIG1        0.0367
     13 C          -1.0166    1.8536    0.0014 C.2     1  LIG1        0.0384
     14 C           0.1958    2.5069    0.0015 C.3     1  LIG1        0.1737
     15 C           0.0263    3.9290    0.0017 C.3     2  LIG2        0.0000
     16 C          -1.3057    4.2790    0.0026 C.2     1  LIG1        0.0396
     17 S          -2.2953    2.9311    0.0023 S.3     1  LIG1       -0.0879
     18 O           1.3610    1.9305    0.0013 O.3     1  LIG1       -0.3647
     19 C           1.1911    0.5106    0.0011 C.3     1  LIG1        0.0379
     20 H           2.1504    0.0366    0.0007 H       1  LIG1        0.0524
     21 H           0.6482    0.2162    0.8749 H       1  LIG1        0.0524
     22 H           0.6476    0.2165   -0.8724 H       1  LIG1        0.0524
     23 H           1.0233    4.7632    0.0012 H       3  LIG3        0.0194
     24 C          -1.7708    5.4930    0.0035 C.2     1  LIG1        0.0427
     25 C          -1.0136    6.6432    0.0227 C.3     1  LIG1        0.2152
     26 C          -1.8374    7.8147    0.0172 C.3     3  LIG3        0.0000
     27 C          -3.1758    7.4910   -0.0051 C.3     1  LIG1        0.0979
     28 S          -3.4074    5.8351   -0.0192 S.3     1  LIG1       -0.1095
     29 O           0.2855    6.6885    0.0432 O.3     1  LIG1       -0.2146
     30 C           0.8094    5.3579    0.0506 C.3     4  LIG4       -0.0776
     31 H           1.8786    5.3956    0.0673 H       3  LIG3        0.0194
     32 H           0.4572    4.8407    0.9187 H       3  LIG3        0.0194
     33 H           0.4844    4.8417   -0.8284 H       3  LIG3        0.0194
     34 H          -1.3555    9.0220    0.0317 H       4  LIG4        0.0194
     35 C          -4.1610    8.3391   -0.0144 C.ar    1  LIG1        0.0561
     36 C          -4.0399    9.7110   -0.0205 C.ar    1  LIG1        0.1906
     37 C          -5.3208   10.3515   -0.0311 C.ar    1  LIG1       -0.0076
     38 C          -6.3457    9.4315   -0.0316 C.ar    1  LIG1       -0.0203
     39 S          -5.7642    7.8638   -0.0205 S.2     1  LIG1       -0.0962
     40 H          -7.6153    9.7107   -0.0396 H       1  LIG1        0.0694
     41 O          -2.9176   10.3672   -0.0175 O.3     1  LIG1       -0.2870
     42 C          -1.8252    9.4444   -0.0165 C.3     5  LIG5       -0.0776
     43 H          -0.9017    9.9849   -0.0141 H       4  LIG4        0.0194
     44 H          -1.8798    8.8279    0.8565 H       4  LIG4        0.0194
     45 H          -1.8766    8.8299   -0.8908 H       4  LIG4        0.0194
     46 H          -5.4692   11.6430   -0.0391 H       1  LIG1        0.0661
@<TRIPOS>BOND
     1    45    42    1
     2    11     8    1
     3    22    19    1
     4    33    30    1
     5    40    38    1
     6    46    37    1
     7    38    37   ar
     8    38    39   ar
     9    37    36   ar
    10    36    41    1
    11    36    35   ar
    12    39    35   ar
    13    28    27    1
    14    28    24    1
    15    42    43    1
    16    42    34    1
    17    42    44    1
    18    35    27    1
    19    12     3    1
    20     9     8    1
    21     6     1    1
    22     8     7    1
    23     8    10    1
    24     7     2    1
    25     1     2    2
    26     1     5    1
    27     3     4    1
    28     4     5    1
    29     4    13    2
    30    20    19    1
    31    19    18    1
    32    19    21    1
    33    23    30    1
    34    18    14    1
    35    13    14    1
    36    13    17    1
    37    17    16    1
    38    16    24    2
    39    24    25    1
    40    25    29    1
    41    30    31    1
    42    30    32    1
