@<TRIPOS>MOLECULE
mol_data/noopt/geoms/mol2/5la5la5la-5la.out
 46 44 0 0 0
SMALL
GASTEIGER

@<TRIPOS>ATOM
      1 C          -2.0792   -1.7080   -0.0002 C.2     1  LIG1        0.0216
      2 C          -0.7020   -1.7080   -0.0002 C.2     1  LIG1        0.1685
      3 C          -0.1766   -0.3757   -0.0002 C.3     2  LIG2        0.0000
      4 C          -1.1831    0.5643    0.0006 C.2     1  LIG1        0.0396
      5 S          -2.6937   -0.1528    0.0006 S.3     1  LIG1       -0.0915
      6 H          -2.8374   -2.7640   -0.0008 H       1  LIG1        0.0731
      7 O           0.0503   -2.7682   -0.0004 O.2     1  LIG1       -0.4909
      8 C          -0.7728   -3.9376   -0.0005 C.3     1  LIG1        0.0790
      9 H          -0.1533   -4.8099   -0.0009 H       1  LIG1        0.0660
     10 H          -1.3905   -3.9391    0.8733 H       1  LIG1        0.0660
     11 H          -1.3908   -3.9387   -0.8740 H       1  LIG1        0.0660
     12 H           1.0969   -0.1143   -0.0009 H       2  LIG2        0.0194
     13 C          -1.0166    1.8536    0.0014 C.2     1  LIG1        0.0463
     14 C           0.1956    2.5069    0.0205 C.3     1  LIG1        0.2155
     15 C           0.0262    3.9290    0.0147 C.3     1  LIG1        0.0070
     16 C          -1.3056    4.2790   -0.0075 C.2     1  LIG1        0.0071
     17 S          -2.2951    2.9311   -0.0215 S.3     1  LIG1       -0.0926
     18 O           1.3607    1.9305    0.0410 O.3     1  LIG1       -0.2146
     19 C           1.1906    0.5107    0.0485 C.3     3  LIG3       -0.0776
     20 H           2.1498    0.0366    0.0652 H       2  LIG2        0.0194
     21 H           0.6352    0.2225    0.9165 H       2  LIG2        0.0194
     22 H           0.6597    0.2104   -0.8306 H       2  LIG2        0.0194
     23 H           1.0231    4.7632    0.0291 H       1  LIG1        0.0367
     24 C          -1.7706    5.4930   -0.0170 C.2     1  LIG1        0.0384
     25 C          -1.0134    6.6433   -0.0043 C.3     1  LIG1        0.1737
     26 C          -1.8371    7.8147   -0.0210 C.2     1  LIG1       -0.0457
     27 C          -3.1754    7.4910   -0.0446 C.2     1  LIG1        0.0298
     28 S          -3.4072    5.8350   -0.0470 S.3     1  LIG1       -0.0887
     29 O           0.2857    6.6886    0.0196 O.3     1  LIG1       -0.3647
     30 C           0.8096    5.3581    0.0283 C.3     1  LIG1        0.0379
     31 H           1.8788    5.3958    0.0478 H       1  LIG1        0.0524
     32 H           0.4551    4.8408    0.8953 H       1  LIG1        0.0524
     33 H           0.4869    4.8419   -0.8517 H       1  LIG1        0.0524
     34 H          -1.3552    9.0221   -0.0141 H       1  LIG1        0.0629
     35 C          -4.1606    8.3390   -0.0631 C.ar    1  LIG1        0.0675
     36 C          -4.0397    9.7109   -0.0560 C.ar    1  LIG1        0.1353
     37 C          -5.3204   10.3513   -0.0823 C.ar    1  LIG1       -0.0123
     38 C          -6.3449    9.4313   -0.1072 C.ar    1  LIG1       -0.0202
     39 S          -5.7633    7.8636   -0.0994 S.2     1  LIG1       -0.0924
     40 H          -7.6143    9.7105   -0.1337 H       1  LIG1        0.0695
     41 O          -2.9178   10.3672   -0.0292 O.3     1  LIG1       -0.4939
     42 C          -1.8253    9.4445   -0.0194 C.3     1  LIG1        0.0788
     43 H          -0.9021    9.9850    0.0025 H       1  LIG1        0.0660
     44 H          -1.8935    8.8200    0.8468 H       1  LIG1        0.0660
     45 H          -1.8627    8.8381   -0.9001 H       1  LIG1        0.0660
     46 H          -5.4689   11.6428   -0.0821 H       1  LIG1        0.0660
@<TRIPOS>BOND
     1    45    42    1
     2    11     8    1
     3    33    30    1
     4    22    19    1
     5    40    38    1
     6    38    39   ar
     7    38    37   ar
     8    39    35   ar
     9    37    46    1
    10    37    36   ar
    11    35    36   ar
    12    35    27    1
    13    36    41    1
    14    28    27    1
    15    28    24    1
    16    27    26    2
    17    41    42    1
    18    17    16    1
    19    17    13    1
    20    26    34    1
    21    42    43    1
    22    42    44    1
    23    24    16    2
    24    24    25    1
    25    16    15    1
    26    25    29    1
    27    12    19    1
    28     9     8    1
    29     6     1    1
    30     8     7    1
    31     8    10    1
    32     7     2    1
    33     2     1    2
    34     1     5    1
    35     4     5    1
    36     4    13    2
    37    13    14    1
    38    15    23    1
    39    29    30    1
    40    14    18    1
    41    30    31    1
    42    30    32    1
    43    19    20    1
    44    19    21    1
