@<TRIPOS>MOLECULE
mol_data/noopt/geoms/mol2/5la5la-5la5la-.out
 46 46 0 0 0
SMALL
GASTEIGER

@<TRIPOS>ATOM
      1 C          -2.0792   -1.7080   -0.0002 C.2     1  LIG1        0.0213
      2 C          -0.7020   -1.7080   -0.0002 C.2     1  LIG1        0.1685
      3 C          -0.1766   -0.3757   -0.0002 C.3     1  LIG1        0.0070
      4 C          -1.1831    0.5643    0.0006 C.2     1  LIG1        0.0069
      5 S          -2.6937   -0.1528    0.0006 S.3     1  LIG1       -0.0967
      6 H          -2.8374   -2.7640   -0.0008 H       1  LIG1        0.0731
      7 O           0.0503   -2.7682   -0.0004 O.2     1  LIG1       -0.4909
      8 C          -0.7728   -3.9376   -0.0005 C.3     1  LIG1        0.0790
      9 H          -0.1533   -4.8099   -0.0009 H       1  LIG1        0.0660
     10 H          -1.3905   -3.9391    0.8733 H       1  LIG1        0.0660
     11 H          -1.3908   -3.9387   -0.8740 H       1  LIG1        0.0660
     12 H           1.0969   -0.1143   -0.0009 H       1  LIG1        0.0367
     13 C          -1.0166    1.8536    0.0014 C.2     1  LIG1        0.0381
     14 C           0.1958    2.5069    0.0015 C.3     1  LIG1        0.1737
     15 C           0.0263    3.9290    0.0017 C.3     1  LIG1        0.0070
     16 C          -1.3057    4.2790    0.0026 C.2     1  LIG1        0.0071
     17 S          -2.2953    2.9311    0.0023 S.3     1  LIG1       -0.0931
     18 O           1.3610    1.9305    0.0013 O.3     1  LIG1       -0.3647
     19 C           1.1911    0.5106    0.0011 C.3     1  LIG1        0.0379
     20 H           2.1504    0.0366    0.0007 H       1  LIG1        0.0524
     21 H           0.6482    0.2162    0.8749 H       1  LIG1        0.0524
     22 H           0.6476    0.2165   -0.8724 H       1  LIG1        0.0524
     23 H           1.0233    4.7632    0.0012 H       1  LIG1        0.0367
     24 C          -1.7708    5.4930    0.0035 C.2     1  LIG1        0.0384
     25 C          -1.0134    6.6433    0.0038 C.3     1  LIG1        0.1737
     26 C          -1.8373    7.8147    0.0042 C.2     1  LIG1       -0.0457
     27 C          -3.1759    7.4910    0.0050 C.2     1  LIG1        0.0298
     28 S          -3.4076    5.8350    0.0046 S.3     1  LIG1       -0.0887
     29 O           0.2858    6.6886    0.0035 O.3     1  LIG1       -0.3647
     30 C           0.8098    5.3581    0.0033 C.3     1  LIG1        0.0379
     31 H           1.8792    5.3958    0.0028 H       1  LIG1        0.0524
     32 H           0.4715    4.8414    0.8771 H       1  LIG1        0.0524
     33 H           0.4708    4.8413   -0.8702 H       1  LIG1        0.0524
     34 H          -1.3553    9.0221    0.0038 H       1  LIG1        0.0629
     35 C          -4.1612    8.3391    0.0062 C.ar    1  LIG1        0.0675
     36 C          -4.0401    9.7109    0.0065 C.ar    1  LIG1        0.1353
     37 C          -5.3211   10.3514    0.0071 C.ar    1  LIG1       -0.0123
     38 C          -6.3459    9.4314    0.0079 C.ar    1  LIG1       -0.0202
     39 S          -5.7643    7.8636    0.0073 S.2     1  LIG1       -0.0924
     40 H          -7.6156    9.7105    0.0092 H       1  LIG1        0.0695
     41 O          -2.9179   10.3672    0.0061 O.3     1  LIG1       -0.4939
     42 C          -1.8254    9.4445    0.0059 C.3     1  LIG1        0.0788
     43 H          -0.9020    9.9850    0.0054 H       1  LIG1        0.0660
     44 H          -1.8781    8.8292    0.8798 H       1  LIG1        0.0660
     45 H          -1.8787    8.8288   -0.8675 H       1  LIG1        0.0660
     46 H          -5.4696   11.6429    0.0067 H       1  LIG1        0.0660
@<TRIPOS>BOND
     1    11     8    1
     2    22    19    1
     3    33    30    1
     4    45    42    1
     5    12     3    1
     6     9     8    1
     7     6     1    1
     8     8     7    1
     9     8    10    1
    10     7     2    1
    11     2     1    2
    12     3     4    1
    13     1     5    1
    14     4     5    1
    15     4    13    2
    16    20    19    1
    17    19    18    1
    18    19    21    1
    19    23    15    1
    20    18    14    1
    21    13    14    1
    22    13    17    1
    23    15    16    1
    24    17    16    1
    25    16    24    2
    26    31    30    1
    27    30    29    1
    28    30    32    1
    29    29    25    1
    30    24    25    1
    31    24    28    1
    32    34    26    1
    33    26    27    2
    34    28    27    1
    35    27    35    1
    36    43    42    1
    37    42    41    1
    38    42    44    1
    39    41    36    1
    40    35    36   ar
    41    35    39   ar
    42    36    37   ar
    43    46    37    1
    44    37    38   ar
    45    39    38   ar
    46    38    40    1
