@<TRIPOS>MOLECULE
mol_data/noopt/geoms/mol2/5la5la5la5la-.out
 46 42 0 0 0
SMALL
GASTEIGER

@<TRIPOS>ATOM
      1 C          -2.0792   -1.7080   -0.0002 C.2     1  LIG1        0.0216
      2 C          -0.7020   -1.7080   -0.0002 C.2     1  LIG1        0.1685
      3 C          -0.1766   -0.3757   -0.0002 C.3     2  LIG2        0.0000
      4 C          -1.1831    0.5643    0.0006 C.2     1  LIG1        0.0396
      5 S          -2.6937   -0.1528    0.0006 S.3     1  LIG1       -0.0915
      6 H          -2.8374   -2.7640   -0.0008 H       1  LIG1        0.0731
      7 O           0.0503   -2.7682   -0.0004 O.2     1  LIG1       -0.4909
      8 C          -0.7728   -3.9376   -0.0005 C.3     1  LIG1        0.0790
      9 H          -0.1533   -4.8099   -0.0009 H       1  LIG1        0.0660
     10 H          -1.3905   -3.9391    0.8733 H       1  LIG1        0.0660
     11 H          -1.3908   -3.9387   -0.8740 H       1  LIG1        0.0660
     12 H           1.0969   -0.1143   -0.0009 H       3  LIG3        0.0194
     13 C          -1.0166    1.8536    0.0014 C.2     1  LIG1        0.0466
     14 C           0.1956    2.5069    0.0205 C.3     1  LIG1        0.2155
     15 C           0.0262    3.9290    0.0147 C.3     3  LIG3        0.0000
     16 C          -1.3056    4.2790   -0.0075 C.2     1  LIG1        0.0399
     17 S          -2.2951    2.9311   -0.0215 S.3     1  LIG1       -0.0874
     18 O           1.3607    1.9305    0.0410 O.3     1  LIG1       -0.2146
     19 C           1.1906    0.5107    0.0485 C.3     4  LIG4       -0.0776
     20 H           2.1498    0.0366    0.0652 H       3  LIG3        0.0194
     21 H           0.6352    0.2225    0.9165 H       3  LIG3        0.0194
     22 H           0.6597    0.2104   -0.8306 H       3  LIG3        0.0194
     23 H           1.0231    4.7632    0.0291 H       4  LIG4        0.0194
     24 C          -1.7706    5.4930   -0.0170 C.2     1  LIG1        0.0466
     25 C          -1.0132    6.6432   -0.0232 C.3     1  LIG1        0.2155
     26 C          -1.8369    7.8147   -0.0340 C.2     1  LIG1       -0.0457
     27 C          -3.1756    7.4910   -0.0345 C.2     1  LIG1        0.0298
     28 S          -3.4074    5.8350   -0.0232 S.3     1  LIG1       -0.0882
     29 O           0.2861    6.6885   -0.0202 O.3     1  LIG1       -0.2146
     30 C           0.8100    5.3579   -0.0191 C.3     5  LIG5       -0.0776
     31 H           1.8793    5.3956   -0.0167 H       4  LIG4        0.0194
     32 H           0.4694    4.8411    0.8538 H       4  LIG4        0.0194
     33 H           0.4733    4.8413   -0.8935 H       4  LIG4        0.0194
     34 H          -1.3549    9.0220   -0.0421 H       1  LIG1        0.0629
     35 C          -4.1608    8.3391   -0.0426 C.ar    1  LIG1        0.0675
     36 C          -4.0397    9.7110   -0.0479 C.ar    1  LIG1        0.1353
     37 C          -5.3206   10.3514   -0.0572 C.ar    1  LIG1       -0.0123
     38 C          -6.3455    9.4315   -0.0576 C.ar    1  LIG1       -0.0202
     39 S          -5.7640    7.8637   -0.0478 S.2     1  LIG1       -0.0924
     40 H          -7.6151    9.7107   -0.0644 H       1  LIG1        0.0695
     41 O          -2.9174   10.3672   -0.0453 O.3     1  LIG1       -0.4939
     42 C          -1.8250    9.4444   -0.0444 C.3     1  LIG1        0.0788
     43 H          -0.9015    9.9849   -0.0425 H       1  LIG1        0.0660
     44 H          -1.8794    8.8281    0.8286 H       1  LIG1        0.0660
     45 H          -1.8766    8.8297   -0.9187 H       1  LIG1        0.0660
     46 H          -5.4690   11.6429   -0.0642 H       1  LIG1        0.0660
@<TRIPOS>BOND
     1    45    42    1
     2    33    30    1
     3    11     8    1
     4    22    19    1
     5    40    38    1
     6    46    37    1
     7    38    37   ar
     8    38    39   ar
     9    37    36   ar
    10    36    41    1
    11    36    35   ar
    12    39    35   ar
    13    41    42    1
    14    42    43    1
    15    42    44    1
    16    35    27    1
    17    34    26    1
    18    27    26    2
    19    27    28    1
    20    25    29    1
    21    25    24    1
    22    28    24    1
    23    17    16    1
    24    17    13    1
    25    30    31    1
    26    30    23    1
    27    30    32    1
    28    24    16    2
    29    12    19    1
    30     9     8    1
    31     6     1    1
    32     8     7    1
    33     8    10    1
    34     7     2    1
    35     1     2    2
    36     1     5    1
    37     5     4    1
    38     4    13    2
    39    13    14    1
    40    14    18    1
    41    19    20    1
    42    19    21    1
