@<TRIPOS>MOLECULE
mol_data/noopt/geoms/mol2/5la5la-.out
 24 24 0 0 0
SMALL
GASTEIGER

@<TRIPOS>ATOM
      1 C          -2.0792   -1.7080   -0.0002 C.2     1  LIG1        0.0216
      2 C          -0.7020   -1.7080   -0.0002 C.2     1  LIG1        0.1685
      3 C          -0.1766   -0.3757   -0.0002 C.2     1  LIG1       -0.0457
      4 C          -1.1831    0.5643    0.0006 C.2     1  LIG1        0.0295
      5 S          -2.6937   -0.1528    0.0006 S.3     1  LIG1       -0.0923
      6 H          -2.8374   -2.7640   -0.0008 H       1  LIG1        0.0731
      7 O           0.0503   -2.7682   -0.0004 O.2     1  LIG1       -0.4909
      8 C          -0.7728   -3.9376   -0.0005 C.3     1  LIG1        0.0790
      9 H          -0.1533   -4.8099   -0.0009 H       1  LIG1        0.0660
     10 H          -1.3905   -3.9391    0.8733 H       1  LIG1        0.0660
     11 H          -1.3908   -3.9387   -0.8740 H       1  LIG1        0.0660
     12 H           1.0969   -0.1143   -0.0009 H       1  LIG1        0.0629
     13 C          -1.0166    1.8536    0.0014 C.ar    1  LIG1        0.0675
     14 C           0.1958    2.5069    0.0015 C.ar    1  LIG1        0.1353
     15 C           0.0263    3.9290    0.0017 C.ar    1  LIG1       -0.0123
     16 C          -1.3057    4.2790    0.0026 C.ar    1  LIG1       -0.0202
     17 S          -2.2953    2.9311    0.0023 S.2     1  LIG1       -0.0924
     18 H          -1.7708    5.4930    0.0035 H       1  LIG1        0.0695
     19 O           1.3610    1.9305    0.0013 O.3     1  LIG1       -0.4939
     20 C           1.1911    0.5106    0.0011 C.3     1  LIG1        0.0788
     21 H           2.1504    0.0366    0.0007 H       1  LIG1        0.0660
     22 H           0.6482    0.2162    0.8749 H       1  LIG1        0.0660
     23 H           0.6476    0.2165   -0.8724 H       1  LIG1        0.0660
     24 H           1.0233    4.7632    0.0012 H       1  LIG1        0.0660
@<TRIPOS>BOND
     1    11     8    1
     2    23    20    1
     3    12     3    1
     4     9     8    1
     5     6     1    1
     6     8     7    1
     7     8    10    1
     8     7     2    1
     9     2     1    2
    10     3     4    2
    11     1     5    1
    12     4     5    1
    13     4    13    1
    14    21    20    1
    15    20    19    1
    16    20    22    1
    17    24    15    1
    18    19    14    1
    19    13    14   ar
    20    13    17   ar
    21    14    15   ar
    22    15    16   ar
    23    17    16   ar
    24    16    18    1
