@<TRIPOS>MOLECULE
mol_data/noopt/geoms/mol2/5la5la5la.out
 35 31 0 0 0
SMALL
GASTEIGER

@<TRIPOS>ATOM
      1 C          -2.0792   -1.7080   -0.0002 C.2     1  LIG1        0.0216
      2 C          -0.7020   -1.7080   -0.0002 C.2     1  LIG1        0.1685
      3 C          -0.1766   -0.3757   -0.0002 C.3     2  LIG2        0.0000
      4 C          -1.1831    0.5643    0.0006 C.2     1  LIG1        0.0393
      5 S          -2.6937   -0.1528    0.0006 S.3     1  LIG1       -0.0915
      6 H          -2.8374   -2.7640   -0.0008 H       1  LIG1        0.0731
      7 O           0.0503   -2.7682   -0.0004 O.2     1  LIG1       -0.4909
      8 C          -0.7728   -3.9376   -0.0005 C.3     1  LIG1        0.0790
      9 H          -0.1533   -4.8099   -0.0009 H       1  LIG1        0.0660
     10 H          -1.3905   -3.9391    0.8733 H       1  LIG1        0.0660
     11 H          -1.3908   -3.9387   -0.8740 H       1  LIG1        0.0660
     12 H           1.0969   -0.1143   -0.0009 H       3  LIG3        0.0194
     13 C          -1.0166    1.8536    0.0014 C.2     1  LIG1        0.0427
     14 C           0.1956    2.5069    0.0205 C.3     1  LIG1        0.2152
     15 C           0.0262    3.9290    0.0147 C.3     3  LIG3        0.0000
     16 C          -1.3056    4.2790   -0.0075 C.3     1  LIG1        0.0979
     17 S          -2.2951    2.9311   -0.0215 S.3     1  LIG1       -0.1095
     18 O           1.3607    1.9305    0.0410 O.3     1  LIG1       -0.2146
     19 C           1.1906    0.5107    0.0485 C.3     4  LIG4       -0.0776
     20 H           2.1498    0.0366    0.0652 H       3  LIG3        0.0194
     21 H           0.6352    0.2225    0.9165 H       3  LIG3        0.0194
     22 H           0.6597    0.2104   -0.8306 H       3  LIG3        0.0194
     23 H           1.0231    4.7632    0.0291 H       4  LIG4        0.0194
     24 C          -1.7706    5.4930   -0.0170 C.ar    1  LIG1        0.0561
     25 C          -1.0132    6.6432   -0.0232 C.ar    1  LIG1        0.1906
     26 C          -1.8369    7.8147   -0.0340 C.ar    1  LIG1       -0.0076
     27 C          -3.1756    7.4910   -0.0345 C.ar    1  LIG1       -0.0203
     28 S          -3.4074    5.8350   -0.0232 S.2     1  LIG1       -0.0962
     29 H          -4.1608    8.3391   -0.0426 H       1  LIG1        0.0694
     30 O           0.2861    6.6885   -0.0202 O.3     1  LIG1       -0.2870
     31 C           0.8100    5.3579   -0.0191 C.3     5  LIG5       -0.0776
     32 H           1.8793    5.3956   -0.0167 H       4  LIG4        0.0194
     33 H           0.4694    4.8411    0.8538 H       4  LIG4        0.0194
     34 H           0.4733    4.8413   -0.8935 H       4  LIG4        0.0194
     35 H          -1.3549    9.0220   -0.0421 H       1  LIG1        0.0661
@<TRIPOS>BOND
     1    34    31    1
     2    11     8    1
     3    22    19    1
     4    29    27    1
     5    35    26    1
     6    27    26   ar
     7    27    28   ar
     8    26    25   ar
     9    25    30    1
    10    25    24   ar
    11    28    24   ar
    12    17    16    1
    13    17    13    1
    14    31    32    1
    15    31    23    1
    16    31    33    1
    17    24    16    1
    18    12    19    1
    19     9     8    1
    20     6     1    1
    21     8     7    1
    22     8    10    1
    23     7     2    1
    24     1     2    2
    25     1     5    1
    26     5     4    1
    27     4    13    2
    28    13    14    1
    29    14    18    1
    30    19    20    1
    31    19    21    1
