@<TRIPOS>MOLECULE
mol_data/noopt/geoms/mol2/5la5la-5la-.out
 35 33 0 0 0
SMALL
GASTEIGER

@<TRIPOS>ATOM
      1 C          -2.0792   -1.7080   -0.0002 C.2     1  LIG1        0.0213
      2 C          -0.7020   -1.7080   -0.0002 C.2     1  LIG1        0.1685
      3 C          -0.1766   -0.3757   -0.0002 C.3     1  LIG1        0.0070
      4 C          -1.1831    0.5643    0.0006 C.2     1  LIG1        0.0066
      5 S          -2.6937   -0.1528    0.0006 S.3     1  LIG1       -0.0967
      6 H          -2.8374   -2.7640   -0.0008 H       1  LIG1        0.0731
      7 O           0.0503   -2.7682   -0.0004 O.2     1  LIG1       -0.4909
      8 C          -0.7728   -3.9376   -0.0005 C.3     1  LIG1        0.0790
      9 H          -0.1533   -4.8099   -0.0009 H       1  LIG1        0.0660
     10 H          -1.3905   -3.9391    0.8733 H       1  LIG1        0.0660
     11 H          -1.3908   -3.9387   -0.8740 H       1  LIG1        0.0660
     12 H           1.0969   -0.1143   -0.0009 H       1  LIG1        0.0367
     13 C          -1.0166    1.8536    0.0014 C.2     1  LIG1        0.0345
     14 C           0.1958    2.5069    0.0015 C.3     1  LIG1        0.1734
     15 C           0.0263    3.9290    0.0017 C.3     2  LIG2        0.0000
     16 C          -1.3057    4.2790    0.0026 C.3     1  LIG1        0.0979
     17 S          -2.2953    2.9311    0.0023 S.3     1  LIG1       -0.1099
     18 O           1.3610    1.9305    0.0013 O.3     1  LIG1       -0.3647
     19 C           1.1911    0.5106    0.0011 C.3     1  LIG1        0.0379
     20 H           2.1504    0.0366    0.0007 H       1  LIG1        0.0524
     21 H           0.6482    0.2162    0.8749 H       1  LIG1        0.0524
     22 H           0.6476    0.2165   -0.8724 H       1  LIG1        0.0524
     23 H           1.0233    4.7632    0.0012 H       2  LIG2        0.0194
     24 C          -1.7708    5.4930    0.0035 C.ar    1  LIG1        0.0561
     25 C          -1.0136    6.6432    0.0227 C.ar    1  LIG1        0.1906
     26 C          -1.8374    7.8147    0.0172 C.ar    1  LIG1       -0.0076
     27 C          -3.1758    7.4910   -0.0051 C.ar    1  LIG1       -0.0203
     28 S          -3.4074    5.8351   -0.0192 S.2     1  LIG1       -0.0962
     29 H          -4.1610    8.3391   -0.0144 H       1  LIG1        0.0694
     30 O           0.2855    6.6885    0.0432 O.3     1  LIG1       -0.2870
     31 C           0.8094    5.3579    0.0506 C.3     3  LIG3       -0.0776
     32 H           1.8786    5.3956    0.0673 H       2  LIG2        0.0194
     33 H           0.4572    4.8407    0.9187 H       2  LIG2        0.0194
     34 H           0.4844    4.8417   -0.8284 H       2  LIG2        0.0194
     35 H          -1.3555    9.0220    0.0317 H       1  LIG1        0.0661
@<TRIPOS>BOND
     1    11     8    1
     2    22    19    1
     3    34    31    1
     4    28    27   ar
     5    28    24   ar
     6    29    27    1
     7    27    26   ar
     8    12     3    1
     9     9     8    1
    10     6     1    1
    11     8     7    1
    12     8    10    1
    13     7     2    1
    14     3     4    1
    15     1     2    2
    16     1     5    1
    17     5     4    1
    18     4    13    2
    19    20    19    1
    20    19    18    1
    21    19    21    1
    22    23    31    1
    23    18    14    1
    24    13    14    1
    25    13    17    1
    26    17    16    1
    27    16    24    1
    28    24    25   ar
    29    26    25   ar
    30    26    35    1
    31    25    30    1
    32    31    32    1
    33    31    33    1
