@<TRIPOS>MOLECULE
mol_data/noopt/geoms/mol2/5la5la.out
 24 22 0 0 0
SMALL
GASTEIGER

@<TRIPOS>ATOM
      1 C          -2.0792   -1.7080   -0.0002 C.2     1  LIG1        0.0177
      2 C          -0.7020   -1.7080   -0.0002 C.2     1  LIG1        0.1682
      3 C          -0.1766   -0.3757   -0.0002 C.3     2  LIG2        0.0000
      4 C          -1.1831    0.5643    0.0006 C.3     1  LIG1        0.0976
      5 S          -2.6937   -0.1528    0.0006 S.3     1  LIG1       -0.1135
      6 H          -2.8374   -2.7640   -0.0008 H       1  LIG1        0.0728
      7 O           0.0503   -2.7682   -0.0004 O.2     1  LIG1       -0.4909
      8 C          -0.7728   -3.9376   -0.0005 C.3     1  LIG1        0.0790
      9 H          -0.1533   -4.8099   -0.0009 H       1  LIG1        0.0660
     10 H          -1.3905   -3.9391    0.8733 H       1  LIG1        0.0660
     11 H          -1.3908   -3.9387   -0.8740 H       1  LIG1        0.0660
     12 H           1.0969   -0.1143   -0.0009 H       2  LIG2        0.0194
     13 C          -1.0166    1.8536    0.0014 C.ar    1  LIG1        0.0561
     14 C           0.1956    2.5069    0.0205 C.ar    1  LIG1        0.1906
     15 C           0.0262    3.9290    0.0147 C.ar    1  LIG1       -0.0076
     16 C          -1.3056    4.2790   -0.0075 C.ar    1  LIG1       -0.0203
     17 S          -2.2951    2.9311   -0.0215 S.2     1  LIG1       -0.0962
     18 H          -1.7706    5.4930   -0.0170 H       1  LIG1        0.0694
     19 O           1.3607    1.9305    0.0410 O.3     1  LIG1       -0.2870
     20 C           1.1906    0.5107    0.0485 C.3     3  LIG3       -0.0776
     21 H           2.1498    0.0366    0.0652 H       2  LIG2        0.0194
     22 H           0.6352    0.2225    0.9165 H       2  LIG2        0.0194
     23 H           0.6597    0.2104   -0.8306 H       2  LIG2        0.0194
     24 H           1.0231    4.7632    0.0291 H       1  LIG1        0.0661
@<TRIPOS>BOND
     1    11     8    1
     2    23    20    1
     3    17    16   ar
     4    17    13   ar
     5    18    16    1
     6    16    15   ar
     7    12    20    1
     8     9     8    1
     9     6     1    1
    10     8     7    1
    11     8    10    1
    12     7     2    1
    13     2     1    2
    14     1     5    1
    15     4     5    1
    16     4    13    1
    17    13    14   ar
    18    15    14   ar
    19    15    24    1
    20    14    19    1
    21    20    21    1
    22    20    22    1
