@<TRIPOS>MOLECULE
mol_data/noopt/geoms/mol2/5le.out
 15 15 0 0 0
SMALL
GASTEIGER

@<TRIPOS>ATOM
      1 C          -2.0792   -1.7080   -0.0002 C.ar    1  LIG1        0.0186
      2 C          -0.7020   -1.7080   -0.0002 C.ar    1  LIG1        0.1424
      3 C          -0.1766   -0.3757   -0.0002 C.ar    1  LIG1        0.0732
      4 C          -1.1831    0.5643    0.0006 C.ar    1  LIG1       -0.0053
      5 S          -2.6937   -0.1528    0.0006 S.2     1  LIG1       -0.1001
      6 H          -2.8374   -2.7640   -0.0008 H       1  LIG1        0.0730
      7 H          -1.0166    1.8536    0.0014 H       1  LIG1        0.0707
      8 O           0.0503   -2.7682   -0.0004 O.3     1  LIG1       -0.4934
      9 C          -0.7728   -3.9376   -0.0005 C.3     1  LIG1        0.0789
     10 H          -0.1533   -4.8099   -0.0009 H       1  LIG1        0.0660
     11 H          -1.3905   -3.9391    0.8733 H       1  LIG1        0.0660
     12 H          -1.3908   -3.9387   -0.8740 H       1  LIG1        0.0660
     13 C           1.0969   -0.1143   -0.0009 C.1     1  LIG1       -0.0655
     14 C           2.2735    0.1272   -0.0015 C.1     1  LIG1       -0.1138
     15 H           3.3217    0.3424   -0.0021 H       1  LIG1        0.1232
@<TRIPOS>BOND
     1    12     9    1
     2    15    14    1
     3    14    13    3
     4    13     3    1
     5    10     9    1
     6     6     1    1
     7     9     8    1
     8     9    11    1
     9     8     2    1
    10     1     2   ar
    11     1     5   ar
    12     2     3   ar
    13     3     4   ar
    14     4     5   ar
    15     4     7    1
