@<TRIPOS>MOLECULE
mol_data/noopt/geoms/mol2/5lf.out
 14 14 0 0 0
SMALL
GASTEIGER

@<TRIPOS>ATOM
      1 C          -2.0792   -1.7080   -0.0002 C.ar    1  LIG1        0.0211
      2 C          -0.7020   -1.7080   -0.0002 C.ar    1  LIG1        0.1683
      3 C          -0.1766   -0.3757   -0.0002 C.ar    1  LIG1        0.1656
      4 C          -1.1831    0.5643    0.0006 C.ar    1  LIG1        0.0209
      5 S          -2.6937   -0.1528    0.0006 S.2     1  LIG1       -0.0976
      6 H          -2.8374   -2.7640   -0.0008 H       1  LIG1        0.0731
      7 H          -1.0166    1.8536    0.0014 H       1  LIG1        0.0731
      8 O           0.0503   -2.7682   -0.0004 O.3     1  LIG1       -0.4909
      9 C          -0.7728   -3.9376   -0.0005 C.3     1  LIG1        0.0790
     10 H          -0.1533   -4.8099   -0.0009 H       1  LIG1        0.0660
     11 H          -1.3905   -3.9391    0.8733 H       1  LIG1        0.0660
     12 H          -1.3908   -3.9387   -0.8740 H       1  LIG1        0.0660
     13 O           1.0969   -0.1143   -0.0009 O.3     1  LIG1       -0.5029
     14 H           1.2288    0.8366   -0.0011 H       1  LIG1        0.2923
@<TRIPOS>BOND
     1    12     9    1
     2    14    13    1
     3    13     3    1
     4    10     9    1
     5     6     1    1
     6     9     8    1
     7     9    11    1
     8     8     2    1
     9     1     2   ar
    10     1     5   ar
    11     2     3   ar
    12     3     4   ar
    13     4     5   ar
    14     4     7    1
