@<TRIPOS>MOLECULE
mol_data/noopt/geoms/mol2/5lg5lg-.out
 26 25 0 0 0
SMALL
GASTEIGER

@<TRIPOS>ATOM
      1 C          -2.0792   -1.7080   -0.0002 C.2     1  LIG1        0.0217
      2 C          -0.7020   -1.7080   -0.0002 C.2     1  LIG1        0.1685
      3 C          -0.1766   -0.3757   -0.0002 C.2     1  LIG1        0.0107
      4 C          -1.1831    0.5643    0.0006 C.2     1  LIG1        0.0421
      5 S          -2.6937   -0.1528    0.0006 S.3     1  LIG1       -0.0912
      6 H          -2.8374   -2.7640   -0.0008 H       1  LIG1        0.0731
      7 O           0.0503   -2.7682   -0.0004 O.2     1  LIG1       -0.4909
      8 C          -0.7728   -3.9376   -0.0005 C.3     1  LIG1        0.0790
      9 H          -0.1533   -4.8099   -0.0009 H       1  LIG1        0.0660
     10 H          -1.3905   -3.9391    0.8733 H       1  LIG1        0.0660
     11 H          -1.3908   -3.9387   -0.8740 H       1  LIG1        0.0660
     12 S           1.0968   -0.1143   -0.0009 S.3     1  LIG1       -0.2500
     13 H           1.2768    1.1833   -0.0011 H       1  LIG1        0.0309
     14 C          -1.0166    1.8536    0.0014 C.ar    1  LIG1        0.0746
     15 C           0.1958    2.5069    0.0015 C.ar    1  LIG1        0.2072
     16 C           0.0263    3.9290    0.0017 C.ar    1  LIG1        0.0592
     17 C          -1.3057    4.2790    0.0026 C.ar    1  LIG1       -0.0067
     18 S          -2.2953    2.9311    0.0023 S.2     1  LIG1       -0.0911
     19 H          -1.7708    5.4930    0.0035 H       1  LIG1        0.0706
     20 O           1.3610    1.9305    0.0013 O.3     1  LIG1       -0.2855
     21 C           1.1911    0.5106    0.0011 C.3     2  LIG2       -0.0309
     22 H           2.1504    0.0366    0.0007 H       1  LIG1        0.0806
     23 H           0.6482    0.2162    0.8749 H       1  LIG1        0.0806
     24 H           0.6476    0.2165   -0.8724 H       1  LIG1        0.0806
     25 S           1.0233    4.7632    0.0012 S.3     1  LIG1       -0.1384
     26 H           0.5662    5.9909    0.0010 H       1  LIG1        0.1072
@<TRIPOS>BOND
     1    11     8    1
     2    24    12    1
     3    13    21    1
     4    12     3    1
     5    12    22    1
     6    12    23    1
     7     9     8    1
     8     6     1    1
     9     8     7    1
    10     8    10    1
    11     7     2    1
    12     2     1    2
    13     3     4    2
    14     1     5    1
    15     4     5    1
    16     4    14    1
    17    26    25    1
    18    25    16    1
    19    20    15    1
    20    14    15   ar
    21    14    18   ar
    22    15    16   ar
    23    16    17   ar
    24    18    17   ar
    25    17    19    1
