@<TRIPOS>MOLECULE
mol_data/noopt/geoms/mol2/5lg5lg.out
 26 25 0 0 0
SMALL
GASTEIGER

@<TRIPOS>ATOM
      1 C          -2.0792   -1.7080   -0.0002 C.2     1  LIG1        0.0177
      2 C          -0.7020   -1.7080   -0.0002 C.2     1  LIG1        0.1682
      3 C          -0.1766   -0.3757   -0.0002 C.3     1  LIG1        0.0331
      4 C          -1.1831    0.5643    0.0006 C.3     1  LIG1        0.0976
      5 S          -2.6937   -0.1528    0.0006 S.3     1  LIG1       -0.1135
      6 H          -2.8374   -2.7640   -0.0008 H       1  LIG1        0.0728
      7 O           0.0503   -2.7682   -0.0004 O.2     1  LIG1       -0.4909
      8 C          -0.7728   -3.9376   -0.0005 C.3     1  LIG1        0.0790
      9 H          -0.1533   -4.8099   -0.0009 H       1  LIG1        0.0660
     10 H          -1.3905   -3.9391    0.8733 H       1  LIG1        0.0660
     11 H          -1.3908   -3.9387   -0.8740 H       1  LIG1        0.0660
     12 S           1.0968   -0.1143   -0.0009 S.3     1  LIG1       -0.2806
     13 H           1.2768    1.1833   -0.0011 H       1  LIG1        0.0406
     14 C          -1.0166    1.8536    0.0014 C.ar    1  LIG1        0.0572
     15 C           0.1956    2.5069    0.0205 C.ar    1  LIG1        0.2036
     16 C           0.0262    3.9290    0.0147 C.ar    1  LIG1        0.0589
     17 C          -1.3056    4.2790   -0.0075 C.ar    1  LIG1       -0.0070
     18 S          -2.2951    2.9311   -0.0215 S.2     1  LIG1       -0.0951
     19 H          -1.7706    5.4930   -0.0170 H       1  LIG1        0.0706
     20 O           1.3607    1.9305    0.0410 O.3     1  LIG1       -0.2858
     21 C           1.1906    0.5107    0.0485 C.3     1  LIG1       -0.0018
     22 H           2.1498    0.0366    0.0652 H       1  LIG1        0.0696
     23 H           0.6352    0.2225    0.9165 H       1  LIG1        0.0696
     24 H           0.6597    0.2104   -0.8306 H       1  LIG1        0.0696
     25 S           1.0231    4.7632    0.0291 S.3     1  LIG1       -0.1384
     26 H           0.5659    5.9908    0.0339 H       1  LIG1        0.1072
@<TRIPOS>BOND
     1    11     8    1
     2    24    12    1
     3    18    17   ar
     4    18    14   ar
     5    19    17    1
     6    17    16   ar
     7    13    21    1
     8    12     3    1
     9    12    21    1
    10    12    22    1
    11    12    23    1
    12     9     8    1
    13     6     1    1
    14     8     7    1
    15     8    10    1
    16     7     2    1
    17     1     2    2
    18     1     5    1
    19     5     4    1
    20     4    14    1
    21    14    15   ar
    22    16    15   ar
    23    16    25    1
    24    15    20    1
    25    25    26    1
