@<TRIPOS>MOLECULE
mol_data/noopt/geoms/mol2/5lg5lg-5lg-5lg-.out
 50 47 0 0 0
SMALL
GASTEIGER

@<TRIPOS>ATOM
      1 C          -2.0792   -1.7080   -0.0002 C.2     1  LIG1        0.0217
      2 C          -0.7020   -1.7080   -0.0002 C.2     1  LIG1        0.1685
      3 C          -0.1766   -0.3757   -0.0002 C.2     1  LIG1        0.0107
      4 C          -1.1831    0.5643    0.0006 C.2     1  LIG1        0.0422
      5 S          -2.6937   -0.1528    0.0006 S.3     1  LIG1       -0.0912
      6 H          -2.8374   -2.7640   -0.0008 H       1  LIG1        0.0731
      7 O           0.0503   -2.7682   -0.0004 O.2     1  LIG1       -0.4909
      8 C          -0.7728   -3.9376   -0.0005 C.3     1  LIG1        0.0790
      9 H          -0.1533   -4.8099   -0.0009 H       1  LIG1        0.0660
     10 H          -1.3905   -3.9391    0.8733 H       1  LIG1        0.0660
     11 H          -1.3908   -3.9387   -0.8740 H       1  LIG1        0.0660
     12 S           1.0968   -0.1143   -0.0009 S.3     1  LIG1       -0.2500
     13 H           1.2768    1.1833   -0.0011 H       2  LIG2        0.0309
     14 C          -1.0166    1.8536    0.0014 C.2     1  LIG1        0.0780
     15 C           0.1958    2.5069    0.0015 C.2     1  LIG1        0.2411
     16 C           0.0263    3.9290    0.0017 C.3     1  LIG1        0.0331
     17 C          -1.3057    4.2790    0.0026 C.2     1  LIG1        0.0399
     18 S          -2.2953    2.9311    0.0023 S.3     1  LIG1       -0.0823
     19 O           1.3610    1.9305    0.0013 O.2     1  LIG1       -0.2826
     20 C           1.1911    0.5106    0.0011 C.3     2  LIG2       -0.0309
     21 H           2.1504    0.0366    0.0007 H       1  LIG1        0.0806
     22 H           0.6482    0.2162    0.8749 H       1  LIG1        0.0806
     23 H           0.6476    0.2165   -0.8724 H       1  LIG1        0.0806
     24 S           1.0233    4.7632    0.0012 S.3     1  LIG1       -0.2806
     25 H           0.5662    5.9909    0.0010 H       1  LIG1        0.0406
     26 C          -1.7708    5.4930    0.0035 C.2     1  LIG1        0.0427
     27 C          -1.0136    6.6432    0.0227 C.3     1  LIG1        0.2152
     28 C          -1.8374    7.8147    0.0172 C.3     3  LIG3        0.0428
     29 C          -3.1758    7.4910   -0.0051 C.3     1  LIG1        0.0979
     30 S          -3.4074    5.8351   -0.0192 S.3     1  LIG1       -0.1095
     31 O           0.2855    6.6885    0.0432 O.3     1  LIG1       -0.2146
     32 C           0.8094    5.3579    0.0506 C.3     1  LIG1       -0.0018
     33 H           1.8786    5.3956    0.0673 H       1  LIG1        0.0696
     34 H           0.4572    4.8407    0.9187 H       1  LIG1        0.0696
     35 H           0.4844    4.8417   -0.8284 H       1  LIG1        0.0696
     36 S          -1.3555    9.0220    0.0317 S.3     3  LIG3       -0.2558
     37 H          -2.3403    9.8858    0.0366 H       3  LIG3        0.0365
     38 C          -4.1610    8.3391   -0.0144 C.ar    1  LIG1        0.0572
     39 C          -4.0399    9.7110   -0.0205 C.ar    1  LIG1        0.2036
     40 C          -5.3208   10.3515   -0.0311 C.ar    1  LIG1        0.0589
     41 C          -6.3457    9.4315   -0.0316 C.ar    1  LIG1       -0.0070
     42 S          -5.7642    7.8638   -0.0205 S.2     1  LIG1       -0.0951
     43 H          -7.6153    9.7107   -0.0396 H       1  LIG1        0.0706
     44 O          -2.9176   10.3672   -0.0175 O.3     1  LIG1       -0.2858
     45 C          -1.8252    9.4444   -0.0165 C.3     3  LIG3       -0.0194
     46 H          -0.9017    9.9849   -0.0141 H       3  LIG3        0.0797
     47 H          -1.8798    8.8279    0.8565 H       3  LIG3        0.0797
     48 H          -1.8766    8.8299   -0.8908 H       3  LIG3        0.0365
     49 S          -5.4692   11.6429   -0.0391 S.3     1  LIG1       -0.1384
     50 H          -6.7459   11.9364   -0.0417 H       1  LIG1        0.1072
@<TRIPOS>BOND
     1    48    45    1
     2    11     8    1
     3    23    12    1
     4    35    24    1
     5    50    49    1
     6    43    41    1
     7    49    40    1
     8    41    40   ar
     9    41    42   ar
    10    40    39   ar
    11    39    44    1
    12    39    38   ar
    13    42    38   ar
    14    30    29    1
    15    30    26    1
    16    45    36    1
    17    45    37    1
    18    38    29    1
    19    46    36    1
    20    13    20    1
    21    12     3    1
    22    12    21    1
    23    12    22    1
    24     9     8    1
    25     6     1    1
    26     8     7    1
    27     8    10    1
    28     7     2    1
    29     1     2    2
    30     1     5    1
    31     3     4    2
    32     4     5    1
    33     4    14    1
    34    25    32    1
    35    24    16    1
    36    24    32    1
    37    24    33    1
    38    24    34    1
    39    19    15    1
    40    14    15    2
    41    14    18    1
    42    18    17    1
    43    17    26    2
    44    26    27    1
    45    28    36    1
    46    27    31    1
    47    36    47    1
