@<TRIPOS>MOLECULE
mol_data/noopt/geoms/mol2/5lg5lg5lg5lg.out
 50 47 0 0 0
SMALL
GASTEIGER

@<TRIPOS>ATOM
      1 C          -2.0792   -1.7080   -0.0002 C.2     1  LIG1        0.0216
      2 C          -0.7020   -1.7080   -0.0002 C.2     1  LIG1        0.1685
      3 C          -0.1766   -0.3757   -0.0002 C.3     1  LIG1        0.0331
      4 C          -1.1831    0.5643    0.0006 C.2     1  LIG1        0.0396
      5 S          -2.6937   -0.1528    0.0006 S.3     1  LIG1       -0.0915
      6 H          -2.8374   -2.7640   -0.0008 H       1  LIG1        0.0731
      7 O           0.0503   -2.7682   -0.0004 O.2     1  LIG1       -0.4909
      8 C          -0.7728   -3.9376   -0.0005 C.3     1  LIG1        0.0790
      9 H          -0.1533   -4.8099   -0.0009 H       1  LIG1        0.0660
     10 H          -1.3905   -3.9391    0.8733 H       1  LIG1        0.0660
     11 H          -1.3908   -3.9387   -0.8740 H       1  LIG1        0.0660
     12 S           1.0968   -0.1143   -0.0009 S.3     1  LIG1       -0.2806
     13 H           1.2768    1.1833   -0.0011 H       1  LIG1        0.0406
     14 C          -1.0166    1.8536    0.0014 C.2     1  LIG1        0.0466
     15 C           0.1956    2.5069    0.0205 C.3     1  LIG1        0.2155
     16 C           0.0262    3.9290    0.0147 C.3     2  LIG2        0.0428
     17 C          -1.3056    4.2790   -0.0075 C.2     1  LIG1        0.0396
     18 S          -2.2951    2.9311   -0.0215 S.3     1  LIG1       -0.0874
     19 O           1.3607    1.9305    0.0410 O.3     1  LIG1       -0.2146
     20 C           1.1906    0.5107    0.0485 C.3     1  LIG1       -0.0018
     21 H           2.1498    0.0366    0.0652 H       1  LIG1        0.0696
     22 H           0.6352    0.2225    0.9165 H       1  LIG1        0.0696
     23 H           0.6597    0.2104   -0.8306 H       1  LIG1        0.0696
     24 S           1.0231    4.7632    0.0291 S.3     2  LIG2       -0.2558
     25 H           0.5659    5.9908    0.0339 H       2  LIG2        0.0365
     26 C          -1.7706    5.4930   -0.0170 C.2     1  LIG1        0.0427
     27 C          -1.0132    6.6432   -0.0232 C.3     1  LIG1        0.2152
     28 C          -1.8369    7.8147   -0.0340 C.3     3  LIG3        0.0331
     29 C          -3.1756    7.4910   -0.0345 C.3     1  LIG1        0.0979
     30 S          -3.4074    5.8350   -0.0232 S.3     1  LIG1       -0.1095
     31 O           0.2861    6.6885   -0.0202 O.3     1  LIG1       -0.2146
     32 C           0.8100    5.3579   -0.0191 C.3     2  LIG2       -0.0194
     33 H           1.8793    5.3956   -0.0167 H       2  LIG2        0.0797
     34 H           0.4694    4.8411    0.8538 H       2  LIG2        0.0797
     35 H           0.4733    4.8413   -0.8935 H       2  LIG2        0.0365
     36 S          -1.3549    9.0219   -0.0421 S.3     3  LIG3       -0.2806
     37 H          -2.3396    9.8859   -0.0448 H       3  LIG3        0.0406
     38 C          -4.1608    8.3391   -0.0426 C.ar    1  LIG1        0.0572
     39 C          -4.0399    9.7109   -0.0290 C.ar    1  LIG1        0.2036
     40 C          -5.3207   10.3514   -0.0442 C.ar    1  LIG1        0.0589
     41 C          -6.3454    9.4315   -0.0677 C.ar    1  LIG1       -0.0070
     42 S          -5.7637    7.8638   -0.0716 S.2     1  LIG1       -0.0951
     43 H          -7.6149    9.7107   -0.0849 H       1  LIG1        0.0706
     44 O          -2.9178   10.3671   -0.0056 O.3     1  LIG1       -0.2858
     45 C          -1.8254    9.4443    0.0029 C.3     3  LIG3       -0.0018
     46 H          -0.9021    9.9848    0.0220 H       3  LIG3        0.0696
     47 H          -1.8918    8.8210    0.8701 H       3  LIG3        0.0696
     48 H          -1.8649    8.8367   -0.8769 H       3  LIG3        0.0696
     49 S          -5.4693   11.6428   -0.0363 S.3     1  LIG1       -0.1384
     50 H          -6.7460   11.9361   -0.0337 H       1  LIG1        0.1072
@<TRIPOS>BOND
     1    35    32    1
     2    48    36    1
     3    11     8    1
     4    23    12    1
     5    43    41    1
     6    42    41   ar
     7    42    38   ar
     8    41    40   ar
     9    37    45    1
    10    40    49    1
    11    40    39   ar
    12    38    29    1
    13    38    39   ar
    14    36    28    1
    15    36    45    1
    16    36    46    1
    17    36    47    1
    18    49    50    1
    19    29    30    1
    20    39    44    1
    21    27    31    1
    22    27    26    1
    23    30    26    1
    24    18    17    1
    25    18    14    1
    26    32    24    1
    27    32    25    1
    28    26    17    2
    29    33    24    1
    30    13    20    1
    31    12     3    1
    32    12    20    1
    33    12    21    1
    34    12    22    1
    35     9     8    1
    36     6     1    1
    37     8     7    1
    38     8    10    1
    39     7     2    1
    40     2     1    2
    41     1     5    1
    42     5     4    1
    43     4    14    2
    44    14    15    1
    45    16    24    1
    46    15    19    1
    47    24    34    1
