@<TRIPOS>MOLECULE
mol_data/noopt/geoms/mol2/5lg5lg-5lg-5lg.out
 50 47 0 0 0
SMALL
GASTEIGER

@<TRIPOS>ATOM
      1 C          -2.0792   -1.7080   -0.0002 C.2     1  LIG1        0.0217
      2 C          -0.7020   -1.7080   -0.0002 C.2     1  LIG1        0.1685
      3 C          -0.1766   -0.3757   -0.0002 C.2     1  LIG1        0.0107
      4 C          -1.1831    0.5643    0.0006 C.2     1  LIG1        0.0422
      5 S          -2.6937   -0.1528    0.0006 S.3     1  LIG1       -0.0912
      6 H          -2.8374   -2.7640   -0.0008 H       1  LIG1        0.0731
      7 O           0.0503   -2.7682   -0.0004 O.2     1  LIG1       -0.4909
      8 C          -0.7728   -3.9376   -0.0005 C.3     1  LIG1        0.0790
      9 H          -0.1533   -4.8099   -0.0009 H       1  LIG1        0.0660
     10 H          -1.3905   -3.9391    0.8733 H       1  LIG1        0.0660
     11 H          -1.3908   -3.9387   -0.8740 H       1  LIG1        0.0660
     12 S           1.0968   -0.1143   -0.0009 S.3     1  LIG1       -0.2500
     13 H           1.2768    1.1833   -0.0011 H       2  LIG2        0.0309
     14 C          -1.0166    1.8536    0.0014 C.2     1  LIG1        0.0780
     15 C           0.1958    2.5069    0.0015 C.2     1  LIG1        0.2411
     16 C           0.0263    3.9290    0.0017 C.3     1  LIG1        0.0331
     17 C          -1.3057    4.2790    0.0026 C.2     1  LIG1        0.0402
     18 S          -2.2953    2.9311    0.0023 S.3     1  LIG1       -0.0823
     19 O           1.3610    1.9305    0.0013 O.2     1  LIG1       -0.2826
     20 C           1.1911    0.5106    0.0011 C.3     2  LIG2       -0.0309
     21 H           2.1504    0.0366    0.0007 H       1  LIG1        0.0806
     22 H           0.6482    0.2162    0.8749 H       1  LIG1        0.0806
     23 H           0.6476    0.2165   -0.8724 H       1  LIG1        0.0806
     24 S           1.0233    4.7632    0.0012 S.3     1  LIG1       -0.2806
     25 H           0.5662    5.9909    0.0010 H       1  LIG1        0.0406
     26 C          -1.7708    5.4930    0.0035 C.2     1  LIG1        0.0466
     27 C          -1.0136    6.6432    0.0227 C.3     1  LIG1        0.2155
     28 C          -1.8374    7.8147    0.0172 C.2     1  LIG1        0.0108
     29 C          -3.1758    7.4910   -0.0051 C.2     1  LIG1        0.0424
     30 S          -3.4074    5.8351   -0.0192 S.3     1  LIG1       -0.0871
     31 O           0.2855    6.6885    0.0432 O.3     1  LIG1       -0.2146
     32 C           0.8094    5.3579    0.0506 C.3     1  LIG1       -0.0018
     33 H           1.8786    5.3956    0.0673 H       1  LIG1        0.0696
     34 H           0.4572    4.8407    0.9187 H       1  LIG1        0.0696
     35 H           0.4844    4.8417   -0.8284 H       1  LIG1        0.0696
     36 S          -1.3555    9.0220    0.0317 S.3     1  LIG1       -0.2500
     37 H          -2.3403    9.8858    0.0366 H       3  LIG3        0.0309
     38 C          -4.1610    8.3391   -0.0144 C.ar    1  LIG1        0.0747
     39 C          -4.0401    9.7110   -0.0016 C.ar    1  LIG1        0.2072
     40 C          -5.3209   10.3515   -0.0181 C.ar    1  LIG1        0.0592
     41 C          -6.3455    9.4316   -0.0417 C.ar    1  LIG1       -0.0067
     42 S          -5.7639    7.8638   -0.0443 S.2     1  LIG1       -0.0911
     43 H          -7.6151    9.7108   -0.0601 H       1  LIG1        0.0706
     44 O          -2.9180   10.3671    0.0222 O.3     1  LIG1       -0.2855
     45 C          -1.8256    9.4444    0.0309 C.3     3  LIG3       -0.0309
     46 H          -0.9023    9.9848    0.0504 H       1  LIG1        0.0806
     47 H          -1.8922    8.8209    0.8980 H       1  LIG1        0.0806
     48 H          -1.8648    8.8369   -0.8490 H       1  LIG1        0.0806
     49 S          -5.4695   11.6429   -0.0111 S.3     1  LIG1       -0.1384
     50 H          -6.7462   11.9362   -0.0088 H       1  LIG1        0.1072
@<TRIPOS>BOND
     1    11     8    1
     2    23    12    1
     3    48    36    1
     4    35    24    1
     5    43    41    1
     6    42    41   ar
     7    42    38   ar
     8    41    40   ar
     9    30    29    1
    10    30    26    1
    11    40    49    1
    12    40    39   ar
    13    38    29    1
    14    38    39   ar
    15    49    50    1
    16    29    28    2
    17    39    44    1
    18    13    20    1
    19    12     3    1
    20    12    21    1
    21    12    22    1
    22     9     8    1
    23     6     1    1
    24     8     7    1
    25     8    10    1
    26     7     2    1
    27     1     2    2
    28     1     5    1
    29     3     4    2
    30     5     4    1
    31     4    14    1
    32    25    32    1
    33    24    16    1
    34    24    32    1
    35    24    33    1
    36    24    34    1
    37    19    15    1
    38    14    15    2
    39    14    18    1
    40    18    17    1
    41    17    26    2
    42    26    27    1
    43    28    36    1
    44    27    31    1
    45    45    37    1
    46    36    46    1
    47    36    47    1
