@<TRIPOS>MOLECULE
mol_data/noopt/geoms/mol2/5lg5lg5lg.out
 38 36 0 0 0
SMALL
GASTEIGER

@<TRIPOS>ATOM
      1 C          -2.0792   -1.7080   -0.0002 C.2     1  LIG1        0.0216
      2 C          -0.7020   -1.7080   -0.0002 C.2     1  LIG1        0.1685
      3 C          -0.1766   -0.3757   -0.0002 C.3     1  LIG1        0.0331
      4 C          -1.1831    0.5643    0.0006 C.2     1  LIG1        0.0393
      5 S          -2.6937   -0.1528    0.0006 S.3     1  LIG1       -0.0915
      6 H          -2.8374   -2.7640   -0.0008 H       1  LIG1        0.0731
      7 O           0.0503   -2.7682   -0.0004 O.2     1  LIG1       -0.4909
      8 C          -0.7728   -3.9376   -0.0005 C.3     1  LIG1        0.0790
      9 H          -0.1533   -4.8099   -0.0009 H       1  LIG1        0.0660
     10 H          -1.3905   -3.9391    0.8733 H       1  LIG1        0.0660
     11 H          -1.3908   -3.9387   -0.8740 H       1  LIG1        0.0660
     12 S           1.0968   -0.1143   -0.0009 S.3     1  LIG1       -0.2806
     13 H           1.2768    1.1833   -0.0011 H       1  LIG1        0.0406
     14 C          -1.0166    1.8536    0.0014 C.2     1  LIG1        0.0427
     15 C           0.1956    2.5069    0.0205 C.3     1  LIG1        0.2152
     16 C           0.0262    3.9290    0.0147 C.3     2  LIG2        0.0428
     17 C          -1.3056    4.2790   -0.0075 C.3     1  LIG1        0.0979
     18 S          -2.2951    2.9311   -0.0215 S.3     1  LIG1       -0.1095
     19 O           1.3607    1.9305    0.0410 O.3     1  LIG1       -0.2146
     20 C           1.1906    0.5107    0.0485 C.3     1  LIG1       -0.0018
     21 H           2.1498    0.0366    0.0652 H       1  LIG1        0.0696
     22 H           0.6352    0.2225    0.9165 H       1  LIG1        0.0696
     23 H           0.6597    0.2104   -0.8306 H       1  LIG1        0.0696
     24 S           1.0231    4.7632    0.0291 S.3     2  LIG2       -0.2558
     25 H           0.5659    5.9908    0.0339 H       2  LIG2        0.0365
     26 C          -1.7706    5.4930   -0.0170 C.ar    1  LIG1        0.0572
     27 C          -1.0132    6.6432   -0.0232 C.ar    1  LIG1        0.2036
     28 C          -1.8369    7.8147   -0.0340 C.ar    1  LIG1        0.0589
     29 C          -3.1756    7.4910   -0.0345 C.ar    1  LIG1       -0.0070
     30 S          -3.4074    5.8350   -0.0232 S.2     1  LIG1       -0.0951
     31 H          -4.1608    8.3391   -0.0426 H       1  LIG1        0.0706
     32 O           0.2861    6.6885   -0.0202 O.3     1  LIG1       -0.2858
     33 C           0.8100    5.3579   -0.0191 C.3     2  LIG2       -0.0194
     34 H           1.8793    5.3956   -0.0167 H       2  LIG2        0.0797
     35 H           0.4694    4.8411    0.8538 H       2  LIG2        0.0797
     36 H           0.4733    4.8413   -0.8935 H       2  LIG2        0.0365
     37 S          -1.3549    9.0219   -0.0421 S.3     1  LIG1       -0.1384
     38 H          -2.3396    9.8859   -0.0448 H       1  LIG1        0.1072
@<TRIPOS>BOND
     1    36    33    1
     2    11     8    1
     3    23    12    1
     4    38    37    1
     5    31    29    1
     6    37    28    1
     7    29    28   ar
     8    29    30   ar
     9    28    27   ar
    10    27    32    1
    11    27    26   ar
    12    30    26   ar
    13    18    17    1
    14    18    14    1
    15    33    24    1
    16    33    25    1
    17    26    17    1
    18    34    24    1
    19    13    20    1
    20    12     3    1
    21    12    20    1
    22    12    21    1
    23    12    22    1
    24     9     8    1
    25     6     1    1
    26     8     7    1
    27     8    10    1
    28     7     2    1
    29     1     2    2
    30     1     5    1
    31     5     4    1
    32     4    14    2
    33    14    15    1
    34    16    24    1
    35    15    19    1
    36    24    35    1
