@<TRIPOS>MOLECULE
mol_data/noopt/geoms/mol2/5lg5lg-5lg-.out
 38 36 0 0 0
SMALL
GASTEIGER

@<TRIPOS>ATOM
      1 C          -2.0792   -1.7080   -0.0002 C.2     1  LIG1        0.0217
      2 C          -0.7020   -1.7080   -0.0002 C.2     1  LIG1        0.1685
      3 C          -0.1766   -0.3757   -0.0002 C.2     1  LIG1        0.0107
      4 C          -1.1831    0.5643    0.0006 C.2     1  LIG1        0.0419
      5 S          -2.6937   -0.1528    0.0006 S.3     1  LIG1       -0.0912
      6 H          -2.8374   -2.7640   -0.0008 H       1  LIG1        0.0731
      7 O           0.0503   -2.7682   -0.0004 O.2     1  LIG1       -0.4909
      8 C          -0.7728   -3.9376   -0.0005 C.3     1  LIG1        0.0790
      9 H          -0.1533   -4.8099   -0.0009 H       1  LIG1        0.0660
     10 H          -1.3905   -3.9391    0.8733 H       1  LIG1        0.0660
     11 H          -1.3908   -3.9387   -0.8740 H       1  LIG1        0.0660
     12 S           1.0968   -0.1143   -0.0009 S.3     1  LIG1       -0.2500
     13 H           1.2768    1.1833   -0.0011 H       2  LIG2        0.0309
     14 C          -1.0166    1.8536    0.0014 C.2     1  LIG1        0.0742
     15 C           0.1958    2.5069    0.0015 C.2     1  LIG1        0.2408
     16 C           0.0263    3.9290    0.0017 C.3     1  LIG1        0.0331
     17 C          -1.3057    4.2790    0.0026 C.3     1  LIG1        0.0983
     18 S          -2.2953    2.9311    0.0023 S.3     1  LIG1       -0.1045
     19 O           1.3610    1.9305    0.0013 O.2     1  LIG1       -0.2826
     20 C           1.1911    0.5106    0.0011 C.3     2  LIG2       -0.0309
     21 H           2.1504    0.0366    0.0007 H       1  LIG1        0.0806
     22 H           0.6482    0.2162    0.8749 H       1  LIG1        0.0806
     23 H           0.6476    0.2165   -0.8724 H       1  LIG1        0.0806
     24 S           1.0233    4.7632    0.0012 S.3     1  LIG1       -0.2806
     25 H           0.5662    5.9909    0.0010 H       1  LIG1        0.0406
     26 C          -1.7708    5.4930    0.0035 C.ar    1  LIG1        0.0572
     27 C          -1.0136    6.6432    0.0227 C.ar    1  LIG1        0.2036
     28 C          -1.8374    7.8147    0.0172 C.ar    1  LIG1        0.0589
     29 C          -3.1758    7.4910   -0.0051 C.ar    1  LIG1       -0.0070
     30 S          -3.4074    5.8351   -0.0192 S.2     1  LIG1       -0.0951
     31 H          -4.1610    8.3391   -0.0144 H       1  LIG1        0.0706
     32 O           0.2855    6.6885    0.0432 O.3     1  LIG1       -0.2858
     33 C           0.8094    5.3579    0.0506 C.3     1  LIG1       -0.0018
     34 H           1.8786    5.3956    0.0673 H       1  LIG1        0.0696
     35 H           0.4572    4.8407    0.9187 H       1  LIG1        0.0696
     36 H           0.4844    4.8417   -0.8284 H       1  LIG1        0.0696
     37 S          -1.3555    9.0220    0.0317 S.3     1  LIG1       -0.1384
     38 H          -2.3403    9.8858    0.0366 H       1  LIG1        0.1072
@<TRIPOS>BOND
     1    11     8    1
     2    23    12    1
     3    36    24    1
     4    30    29   ar
     5    30    26   ar
     6    31    29    1
     7    29    28   ar
     8    13    20    1
     9    12     3    1
    10    12    21    1
    11    12    22    1
    12     9     8    1
    13     6     1    1
    14     8     7    1
    15     8    10    1
    16     7     2    1
    17     1     2    2
    18     1     5    1
    19     3     4    2
    20     5     4    1
    21     4    14    1
    22    25    33    1
    23    24    16    1
    24    24    33    1
    25    24    34    1
    26    24    35    1
    27    19    15    1
    28    14    15    2
    29    14    18    1
    30    18    17    1
    31    17    26    1
    32    26    27   ar
    33    28    27   ar
    34    28    37    1
    35    27    32    1
    36    37    38    1
