@<TRIPOS>MOLECULE
mol_data/noopt/geoms/mol2/5lh.out
 15 15 0 0 0
SMALL
GASTEIGER

@<TRIPOS>ATOM
      1 C          -2.0792   -1.7080   -0.0002 C.ar    1  LIG1        0.0193
      2 C          -0.7020   -1.7080   -0.0002 C.ar    1  LIG1        0.1476
      3 C          -0.1766   -0.3757   -0.0002 C.ar    1  LIG1        0.0739
      4 C          -1.1831    0.5643    0.0006 C.ar    1  LIG1        0.0000
      5 S          -2.6937   -0.1528    0.0006 S.2     1  LIG1       -0.0995
      6 H          -2.8374   -2.7640   -0.0008 H       1  LIG1        0.0731
      7 H          -1.0166    1.8536    0.0014 H       1  LIG1        0.0713
      8 O           0.0503   -2.7682   -0.0004 O.3     1  LIG1       -0.4927
      9 C          -0.7728   -3.9376   -0.0005 C.3     1  LIG1        0.0789
     10 H          -0.1533   -4.8099   -0.0009 H       1  LIG1        0.0660
     11 H          -1.3905   -3.9391    0.8733 H       1  LIG1        0.0660
     12 H          -1.3908   -3.9387   -0.8740 H       1  LIG1        0.0660
     13 N           1.0969   -0.1143   -0.0009 N.pl3   1  LIG1       -0.3547
     14 H           1.5873   -0.8472   -0.4725 H       1  LIG1        0.1424
     15 H           1.2590    0.7524   -0.4725 H       1  LIG1        0.1424
@<TRIPOS>BOND
     1    12     9    1
     2    15    13    1
     3    14    13    1
     4    13     3    1
     5    10     9    1
     6     6     1    1
     7     9     8    1
     8     9    11    1
     9     8     2    1
    10     1     2   ar
    11     1     5   ar
    12     2     3   ar
    13     3     4   ar
    14     4     5   ar
    15     4     7    1
