@<TRIPOS>MOLECULE
mol_data/noopt/geoms/mol2/5lh5lh-5lh-.out
 41 37 0 0 0
SMALL
GASTEIGER

@<TRIPOS>ATOM
      1 C          -2.0792   -1.7080   -0.0002 C.2     1  LIG1        0.0213
      2 C          -0.7020   -1.7080   -0.0002 C.2     1  LIG1        0.1685
      3 C          -0.1766   -0.3757   -0.0002 C.3     1  LIG1        0.0384
      4 C          -1.1831    0.5643    0.0006 C.2     1  LIG1        0.0112
      5 S          -2.6937   -0.1528    0.0006 S.3     1  LIG1       -0.0964
      6 H          -2.8374   -2.7640   -0.0008 H       1  LIG1        0.0731
      7 O           0.0503   -2.7682   -0.0004 O.2     1  LIG1       -0.4909
      8 C          -0.7728   -3.9376   -0.0005 C.3     1  LIG1        0.0790
      9 H          -0.1533   -4.8099   -0.0009 H       1  LIG1        0.0660
     10 H          -1.3905   -3.9391    0.8733 H       1  LIG1        0.0660
     11 H          -1.3908   -3.9387   -0.8740 H       1  LIG1        0.0660
     12 N           1.0969   -0.1143   -0.0009 N.4     2  LIG2        0.3770
     13 H           1.5873   -0.8472   -0.4725 H       1  LIG1       -0.0942
     14 H           1.2590    0.7524   -0.4725 H       1  LIG1       -0.0942
     15 C          -1.0166    1.8536    0.0014 C.2     1  LIG1        0.0349
     16 C           0.1958    2.5069    0.0015 C.3     1  LIG1        0.1744
     17 C           0.0263    3.9290    0.0017 C.3     3  LIG3        0.0000
     18 C          -1.3057    4.2790    0.0026 C.3     1  LIG1        0.0978
     19 S          -2.2953    2.9311    0.0023 S.3     1  LIG1       -0.1099
     20 O           1.3610    1.9305    0.0013 O.3     1  LIG1       -0.3529
     21 C           1.1911    0.5106    0.0011 C.3     1  LIG1        0.1173
     22 H           2.1504    0.0366    0.0007 H       1  LIG1        0.0650
     23 H           0.6482    0.2162    0.8749 H       1  LIG1       -0.0942
     24 H           0.6476    0.2165   -0.8724 H       1  LIG1       -0.0942
     25 N           1.0233    4.7632    0.0012 N.3     3  LIG3       -0.2553
     26 H           1.8027    4.3508   -0.4704 H       4  UNK4        0.0000
     27 H           0.7549    5.6032   -0.4704 H       1  LIG1        0.2923
     28 C          -1.7708    5.4930    0.0035 C.ar    1  LIG1        0.0527
     29 C          -1.0136    6.6432    0.0227 C.ar    1  LIG1        0.1490
     30 C          -1.8374    7.8147    0.0172 C.ar    1  LIG1        0.0740
     31 C          -3.1758    7.4910   -0.0051 C.ar    1  LIG1        0.0003
     32 S          -3.4074    5.8351   -0.0192 S.2     1  LIG1       -0.0945
     33 H          -4.1610    8.3391   -0.0144 H       1  LIG1        0.0713
     34 O           0.2855    6.6885    0.0432 O.3     1  LIG1       -0.5041
     35 C           0.8094    5.3579    0.0506 C.3     3  LIG3        0.0245
     36 H           1.8786    5.3956    0.0673 H       3  LIG3        0.0451
     37 H           0.4572    4.8407    0.9187 H       3  LIG3        0.0451
     38 H           0.4844    4.8417   -0.8284 H       3  LIG3        0.1406
     39 N          -1.3555    9.0220    0.0317 N.pl3   1  LIG1       -0.3547
     40 H          -0.4717    9.0338   -0.4360 H       1  LIG1        0.1424
     41 H          -1.9883    9.6391   -0.4360 H       1  LIG1        0.1424
@<TRIPOS>BOND
     1    11     8    1
     2    24    12    1
     3    38    25    1
     4    14    12    1
     5    13    12    1
     6    27    34    1
     7    41    39    1
     8    40    39    1
     9    32    31   ar
    10    32    28   ar
    11    33    31    1
    12    31    30   ar
    13    12    23    1
    14     9     8    1
    15     6     1    1
    16     8     7    1
    17     8    10    1
    18     7     2    1
    19     1     2    2
    20     1     5    1
    21     3     4    1
    22     4     5    1
    23     4    15    2
    24    22    21    1
    25    21    20    1
    26    25    35    1
    27    20    16    1
    28    15    16    1
    29    15    19    1
    30    19    18    1
    31    18    28    1
    32    28    29   ar
    33    30    29   ar
    34    30    39    1
    35    29    34    1
    36    35    36    1
    37    35    37    1
