@<TRIPOS>MOLECULE
mol_data/noopt/geoms/mol2/5lh5lh-5lh5lh-.out
 54 51 0 0 0
SMALL
GASTEIGER

@<TRIPOS>ATOM
      1 C          -2.0792   -1.7080   -0.0002 C.2     1  LIG1        0.0213
      2 C          -0.7020   -1.7080   -0.0002 C.2     1  LIG1        0.1685
      3 C          -0.1766   -0.3757   -0.0002 C.3     1  LIG1        0.0384
      4 C          -1.1831    0.5643    0.0006 C.2     1  LIG1        0.0115
      5 S          -2.6937   -0.1528    0.0006 S.3     1  LIG1       -0.0963
      6 H          -2.8374   -2.7640   -0.0008 H       1  LIG1        0.0731
      7 O           0.0503   -2.7682   -0.0004 O.2     1  LIG1       -0.4909
      8 C          -0.7728   -3.9376   -0.0005 C.3     1  LIG1        0.0790
      9 H          -0.1533   -4.8099   -0.0009 H       1  LIG1        0.0660
     10 H          -1.3905   -3.9391    0.8733 H       1  LIG1        0.0660
     11 H          -1.3908   -3.9387   -0.8740 H       1  LIG1        0.0660
     12 N           1.0969   -0.1143   -0.0009 N.4     2  LIG2        0.3770
     13 H           1.5873   -0.8472   -0.4725 H       1  LIG1       -0.0942
     14 H           1.2590    0.7524   -0.4725 H       1  LIG1       -0.0942
     15 C          -1.0166    1.8536    0.0014 C.2     1  LIG1        0.0385
     16 C           0.1958    2.5069    0.0015 C.3     1  LIG1        0.1747
     17 C           0.0263    3.9290    0.0017 C.3     1  LIG1        0.0384
     18 C          -1.3057    4.2790    0.0026 C.2     1  LIG1        0.0117
     19 S          -2.2953    2.9311    0.0023 S.3     1  LIG1       -0.0927
     20 O           1.3610    1.9305    0.0013 O.3     1  LIG1       -0.3529
     21 C           1.1911    0.5106    0.0011 C.3     1  LIG1        0.1173
     22 H           2.1504    0.0366    0.0007 H       1  LIG1        0.0650
     23 H           0.6482    0.2162    0.8749 H       1  LIG1       -0.0942
     24 H           0.6476    0.2165   -0.8724 H       1  LIG1       -0.0942
     25 N           1.0233    4.7632    0.0012 N.4     3  LIG3        0.3770
     26 H           1.8027    4.3508   -0.4704 H       2  LIG2       -0.0942
     27 H           0.7549    5.6032   -0.4704 H       2  LIG2       -0.0942
     28 C          -1.7708    5.4930    0.0035 C.2     1  LIG1        0.0388
     29 C          -1.0134    6.6433    0.0038 C.3     1  LIG1        0.1747
     30 C          -1.8373    7.8147    0.0042 C.2     1  LIG1        0.0076
     31 C          -3.1759    7.4910    0.0050 C.2     1  LIG1        0.0382
     32 S          -3.4076    5.8350    0.0046 S.3     1  LIG1       -0.0880
     33 O           0.2858    6.6886    0.0035 O.3     1  LIG1       -0.3529
     34 C           0.8098    5.3581    0.0033 C.3     1  LIG1        0.1173
     35 H           1.8792    5.3958    0.0028 H       1  LIG1        0.0650
     36 H           0.4715    4.8414    0.8771 H       2  LIG2       -0.0942
     37 H           0.4708    4.8413   -0.8702 H       2  LIG2       -0.0942
     38 N          -1.3553    9.0221    0.0038 N.4     4  LIG4        0.3770
     39 H          -0.4735    9.0288   -0.4678 H       3  LIG3       -0.0942
     40 H          -1.9901    9.6342   -0.4678 H       3  LIG3       -0.0942
     41 C          -4.1612    8.3391    0.0062 C.ar    1  LIG1        0.0700
     42 C          -4.0401    9.7109    0.0065 C.ar    1  LIG1        0.1570
     43 C          -5.3211   10.3514    0.0071 C.ar    1  LIG1        0.0746
     44 C          -6.3459    9.4314    0.0079 C.ar    1  LIG1        0.0006
     45 S          -5.7643    7.8636    0.0073 S.2     1  LIG1       -0.0905
     46 H          -7.6156    9.7105    0.0092 H       1  LIG1        0.0713
     47 O          -2.9179   10.3672    0.0061 O.3     1  LIG1       -0.4782
     48 C          -1.8254    9.4445    0.0059 C.3     1  LIG1        0.1806
     49 H          -0.9020    9.9850    0.0054 H       1  LIG1        0.0811
     50 H          -1.8781    8.8292    0.8798 H       3  LIG3       -0.0942
     51 H          -1.8787    8.8288   -0.8675 H       3  LIG3       -0.0942
     52 N          -5.4696   11.6429    0.0067 N.pl3   1  LIG1       -0.3547
     53 H          -4.6965   12.0672   -0.4647 H       1  LIG1        0.1424
     54 H          -6.3188   11.8807   -0.4648 H       1  LIG1        0.1424
@<TRIPOS>BOND
     1    11     8    1
     2    24    12    1
     3    37    25    1
     4    51    38    1
     5    14    12    1
     6    13    12    1
     7    27    25    1
     8    26    25    1
     9    40    38    1
    10    39    38    1
    11    54    52    1
    12    53    52    1
    13    12    23    1
    14     9     8    1
    15     6     1    1
    16     8     7    1
    17     8    10    1
    18     7     2    1
    19     1     2    2
    20     1     5    1
    21     3     4    1
    22     4     5    1
    23     4    15    2
    24    22    21    1
    25    21    20    1
    26    25    36    1
    27    20    16    1
    28    15    16    1
    29    15    19    1
    30    17    18    1
    31    19    18    1
    32    18    28    2
    33    35    34    1
    34    34    33    1
    35    33    29    1
    36    28    29    1
    37    28    32    1
    38    38    50    1
    39    30    31    2
    40    32    31    1
    41    31    41    1
    42    49    48    1
    43    48    47    1
    44    47    42    1
    45    41    42   ar
    46    41    45   ar
    47    42    43   ar
    48    52    43    1
    49    43    44   ar
    50    45    44   ar
    51    44    46    1
