@<TRIPOS>MOLECULE
mol_data/noopt/geoms/mol2/5lh5lh-.out
 28 27 0 0 0
SMALL
GASTEIGER

@<TRIPOS>ATOM
      1 C          -2.0792   -1.7080   -0.0002 C.2     1  LIG1        0.0216
      2 C          -0.7020   -1.7080   -0.0002 C.2     1  LIG1        0.1685
      3 C          -0.1766   -0.3757   -0.0002 C.2     1  LIG1        0.0076
      4 C          -1.1831    0.5643    0.0006 C.2     1  LIG1        0.0379
      5 S          -2.6937   -0.1528    0.0006 S.3     1  LIG1       -0.0917
      6 H          -2.8374   -2.7640   -0.0008 H       1  LIG1        0.0731
      7 O           0.0503   -2.7682   -0.0004 O.2     1  LIG1       -0.4909
      8 C          -0.7728   -3.9376   -0.0005 C.3     1  LIG1        0.0790
      9 H          -0.1533   -4.8099   -0.0009 H       1  LIG1        0.0660
     10 H          -1.3905   -3.9391    0.8733 H       1  LIG1        0.0660
     11 H          -1.3908   -3.9387   -0.8740 H       1  LIG1        0.0660
     12 N           1.0969   -0.1143   -0.0009 N.4     2  LIG2        0.3770
     13 H           1.5873   -0.8472   -0.4725 H       1  LIG1       -0.0942
     14 H           1.2590    0.7524   -0.4725 H       1  LIG1       -0.0942
     15 C          -1.0166    1.8536    0.0014 C.ar    1  LIG1        0.0700
     16 C           0.1958    2.5069    0.0015 C.ar    1  LIG1        0.1570
     17 C           0.0263    3.9290    0.0017 C.ar    1  LIG1        0.0746
     18 C          -1.3057    4.2790    0.0026 C.ar    1  LIG1        0.0006
     19 S          -2.2953    2.9311    0.0023 S.2     1  LIG1       -0.0905
     20 H          -1.7708    5.4930    0.0035 H       1  LIG1        0.0713
     21 O           1.3610    1.9305    0.0013 O.3     1  LIG1       -0.4782
     22 C           1.1911    0.5106    0.0011 C.3     1  LIG1        0.1806
     23 H           2.1504    0.0366    0.0007 H       1  LIG1        0.0811
     24 H           0.6482    0.2162    0.8749 H       1  LIG1       -0.0942
     25 H           0.6476    0.2165   -0.8724 H       1  LIG1       -0.0942
     26 N           1.0233    4.7632    0.0012 N.pl3   1  LIG1       -0.3547
     27 H           1.8027    4.3508   -0.4704 H       1  LIG1        0.1424
     28 H           0.7549    5.6032   -0.4704 H       1  LIG1        0.1424
@<TRIPOS>BOND
     1    11     8    1
     2    25    12    1
     3    14    12    1
     4    13    12    1
     5    28    26    1
     6    27    26    1
     7    12    24    1
     8     9     8    1
     9     6     1    1
    10     8     7    1
    11     8    10    1
    12     7     2    1
    13     1     2    2
    14     1     5    1
    15     3     4    2
    16     5     4    1
    17     4    15    1
    18    23    22    1
    19    22    21    1
    20    26    17    1
    21    21    16    1
    22    15    16   ar
    23    15    19   ar
    24    16    17   ar
    25    17    18   ar
    26    19    18   ar
    27    18    20    1
