@<TRIPOS>MOLECULE
mol_data/noopt/geoms/mol2/5lh5lh5lh-.out
 41 37 0 0 0
SMALL
GASTEIGER

@<TRIPOS>ATOM
      1 C          -2.0792   -1.7080   -0.0002 C.2     1  LIG1        0.0216
      2 C          -0.7020   -1.7080   -0.0002 C.2     1  LIG1        0.1685
      3 C          -0.1766   -0.3757   -0.0002 C.3     2  LIG2        0.0000
      4 C          -1.1831    0.5643    0.0006 C.2     1  LIG1        0.0395
      5 S          -2.6937   -0.1528    0.0006 S.3     1  LIG1       -0.0915
      6 H          -2.8374   -2.7640   -0.0008 H       1  LIG1        0.0731
      7 O           0.0503   -2.7682   -0.0004 O.2     1  LIG1       -0.4909
      8 C          -0.7728   -3.9376   -0.0005 C.3     1  LIG1        0.0790
      9 H          -0.1533   -4.8099   -0.0009 H       1  LIG1        0.0660
     10 H          -1.3905   -3.9391    0.8733 H       1  LIG1        0.0660
     11 H          -1.3908   -3.9387   -0.8740 H       1  LIG1        0.0660
     12 N           1.0969   -0.1143   -0.0009 N.3     2  LIG2       -0.2553
     13 H           1.5873   -0.8472   -0.4725 H       3  UNK3        0.0000
     14 H           1.2590    0.7524   -0.4725 H       1  LIG1        0.2109
     15 C          -1.0166    1.8536    0.0014 C.2     1  LIG1        0.0430
     16 C           0.1956    2.5069    0.0205 C.3     1  LIG1        0.1706
     17 C           0.0262    3.9290    0.0147 C.2     1  LIG1        0.0076
     18 C          -1.3056    4.2790   -0.0075 C.2     1  LIG1        0.0382
     19 S          -2.2951    2.9311   -0.0215 S.3     1  LIG1       -0.0877
     20 O           1.3607    1.9305    0.0410 O.3     1  LIG1       -0.3768
     21 C           1.1906    0.5107    0.0485 C.3     2  LIG2        0.0245
     22 H           2.1498    0.0366    0.0652 H       2  LIG2        0.0451
     23 H           0.6352    0.2225    0.9165 H       2  LIG2        0.0451
     24 H           0.6597    0.2104   -0.8306 H       2  LIG2        0.1406
     25 N           1.0231    4.7633    0.0291 N.4     4  LIG4        0.3770
     26 H           1.8067    4.3543   -0.4386 H       3  UNK3       -0.0942
     27 H           0.7588    5.6066   -0.4386 H       3  UNK3       -0.0942
     28 C          -1.7706    5.4930   -0.0170 C.ar    1  LIG1        0.0700
     29 C          -1.0134    6.6433   -0.0043 C.ar    1  LIG1        0.1570
     30 C          -1.8371    7.8147   -0.0210 C.ar    1  LIG1        0.0746
     31 C          -3.1754    7.4910   -0.0446 C.ar    1  LIG1        0.0006
     32 S          -3.4072    5.8350   -0.0470 S.2     1  LIG1       -0.0905
     33 H          -4.1606    8.3390   -0.0631 H       1  LIG1        0.0713
     34 O           0.2857    6.6886    0.0196 O.3     1  LIG1       -0.4782
     35 C           0.8096    5.3581    0.0283 C.3     1  LIG1        0.1806
     36 H           1.8788    5.3958    0.0478 H       1  LIG1        0.0811
     37 H           0.4551    4.8408    0.8953 H       3  UNK3       -0.0942
     38 H           0.4869    4.8419   -0.8517 H       3  UNK3       -0.0942
     39 N          -1.3551    9.0221   -0.0141 N.pl3   1  LIG1       -0.3547
     40 H          -0.4723    9.0313   -0.4838 H       1  LIG1        0.1424
     41 H          -1.9889    9.6367   -0.4838 H       1  LIG1        0.1424
@<TRIPOS>BOND
     1    11     8    1
     2    38    25    1
     3    24    12    1
     4    41    39    1
     5    40    39    1
     6    14    20    1
     7    27    25    1
     8    26    25    1
     9    33    31    1
    10    32    31   ar
    11    32    28   ar
    12    31    30   ar
    13    19    18    1
    14    19    15    1
    15    30    39    1
    16    30    29   ar
    17    28    18    1
    18    28    29   ar
    19    18    17    2
    20    29    34    1
    21    12    21    1
    22     9     8    1
    23     6     1    1
    24     8     7    1
    25     8    10    1
    26     7     2    1
    27     1     2    2
    28     1     5    1
    29     4     5    1
    30     4    15    2
    31    15    16    1
    32    34    35    1
    33    16    20    1
    34    35    36    1
    35    25    37    1
    36    21    22    1
    37    21    23    1
