@<TRIPOS>MOLECULE
mol_data/noopt/geoms/mol2/5lh5lh.out
 28 25 0 0 0
SMALL
GASTEIGER

@<TRIPOS>ATOM
      1 C          -2.0792   -1.7080   -0.0002 C.2     1  LIG1        0.0177
      2 C          -0.7020   -1.7080   -0.0002 C.2     1  LIG1        0.1682
      3 C          -0.1766   -0.3757   -0.0002 C.3     2  LIG2        0.0000
      4 C          -1.1831    0.5643    0.0006 C.3     1  LIG1        0.0975
      5 S          -2.6937   -0.1528    0.0006 S.3     1  LIG1       -0.1135
      6 H          -2.8374   -2.7640   -0.0008 H       1  LIG1        0.0728
      7 O           0.0503   -2.7682   -0.0004 O.2     1  LIG1       -0.4909
      8 C          -0.7728   -3.9376   -0.0005 C.3     1  LIG1        0.0790
      9 H          -0.1533   -4.8099   -0.0009 H       1  LIG1        0.0660
     10 H          -1.3905   -3.9391    0.8733 H       1  LIG1        0.0660
     11 H          -1.3908   -3.9387   -0.8740 H       1  LIG1        0.0660
     12 N           1.0969   -0.1143   -0.0009 N.3     2  LIG2       -0.2553
     13 H           1.5873   -0.8472   -0.4725 H       3  UNK3        0.0000
     14 H           1.2590    0.7524   -0.4725 H       1  LIG1        0.2923
     15 C          -1.0166    1.8536    0.0014 C.ar    1  LIG1        0.0527
     16 C           0.1956    2.5069    0.0205 C.ar    1  LIG1        0.1490
     17 C           0.0262    3.9290    0.0147 C.ar    1  LIG1        0.0740
     18 C          -1.3056    4.2790   -0.0075 C.ar    1  LIG1        0.0003
     19 S          -2.2951    2.9311   -0.0215 S.2     1  LIG1       -0.0945
     20 H          -1.7706    5.4930   -0.0170 H       1  LIG1        0.0713
     21 O           1.3607    1.9305    0.0410 O.3     1  LIG1       -0.5041
     22 C           1.1906    0.5107    0.0485 C.3     2  LIG2        0.0245
     23 H           2.1498    0.0366    0.0652 H       2  LIG2        0.0451
     24 H           0.6352    0.2225    0.9165 H       2  LIG2        0.0451
     25 H           0.6597    0.2104   -0.8306 H       2  LIG2        0.1406
     26 N           1.0231    4.7633    0.0291 N.pl3   1  LIG1       -0.3547
     27 H           1.8067    4.3543   -0.4386 H       1  LIG1        0.1424
     28 H           0.7588    5.6066   -0.4386 H       1  LIG1        0.1424
@<TRIPOS>BOND
     1    11     8    1
     2    25    12    1
     3    14    21    1
     4    28    26    1
     5    27    26    1
     6    19    18   ar
     7    19    15   ar
     8    20    18    1
     9    18    17   ar
    10    12    22    1
    11     9     8    1
    12     6     1    1
    13     8     7    1
    14     8    10    1
    15     7     2    1
    16     1     2    2
    17     1     5    1
    18     5     4    1
    19     4    15    1
    20    15    16   ar
    21    17    16   ar
    22    17    26    1
    23    16    21    1
    24    22    23    1
    25    22    24    1
