@<TRIPOS>MOLECULE
mol_data/noopt/geoms/mol2/5lh5lh-5lh-5lh.out
 54 49 0 0 0
SMALL
GASTEIGER

@<TRIPOS>ATOM
      1 C          -2.0792   -1.7080   -0.0002 C.2     1  LIG1        0.0213
      2 C          -0.7020   -1.7080   -0.0002 C.2     1  LIG1        0.1685
      3 C          -0.1766   -0.3757   -0.0002 C.3     1  LIG1        0.0384
      4 C          -1.1831    0.5643    0.0006 C.2     1  LIG1        0.0115
      5 S          -2.6937   -0.1528    0.0006 S.3     1  LIG1       -0.0963
      6 H          -2.8374   -2.7640   -0.0008 H       1  LIG1        0.0731
      7 O           0.0503   -2.7682   -0.0004 O.2     1  LIG1       -0.4909
      8 C          -0.7728   -3.9376   -0.0005 C.3     1  LIG1        0.0790
      9 H          -0.1533   -4.8099   -0.0009 H       1  LIG1        0.0660
     10 H          -1.3905   -3.9391    0.8733 H       1  LIG1        0.0660
     11 H          -1.3908   -3.9387   -0.8740 H       1  LIG1        0.0660
     12 N           1.0969   -0.1143   -0.0009 N.4     2  LIG2        0.3770
     13 H           1.5873   -0.8472   -0.4725 H       1  LIG1       -0.0942
     14 H           1.2590    0.7524   -0.4725 H       1  LIG1       -0.0942
     15 C          -1.0166    1.8536    0.0014 C.2     1  LIG1        0.0388
     16 C           0.1958    2.5069    0.0015 C.3     1  LIG1        0.1747
     17 C           0.0263    3.9290    0.0017 C.3     3  LIG3        0.0000
     18 C          -1.3057    4.2790    0.0026 C.2     1  LIG1        0.0398
     19 S          -2.2953    2.9311    0.0023 S.3     1  LIG1       -0.0879
     20 O           1.3610    1.9305    0.0013 O.3     1  LIG1       -0.3529
     21 C           1.1911    0.5106    0.0011 C.3     1  LIG1        0.1173
     22 H           2.1504    0.0366    0.0007 H       1  LIG1        0.0650
     23 H           0.6482    0.2162    0.8749 H       1  LIG1       -0.0942
     24 H           0.6476    0.2165   -0.8724 H       1  LIG1       -0.0942
     25 N           1.0233    4.7632    0.0012 N.3     3  LIG3       -0.2553
     26 H           1.8027    4.3508   -0.4704 H       4  UNK4        0.0000
     27 H           0.7549    5.6032   -0.4704 H       1  LIG1        0.2109
     28 C          -1.7708    5.4930    0.0035 C.2     1  LIG1        0.0430
     29 C          -1.0136    6.6432    0.0227 C.3     1  LIG1        0.1706
     30 C          -1.8374    7.8147    0.0172 C.2     1  LIG1        0.0076
     31 C          -3.1758    7.4910   -0.0051 C.2     1  LIG1        0.0382
     32 S          -3.4074    5.8351   -0.0192 S.3     1  LIG1       -0.0877
     33 O           0.2855    6.6885    0.0432 O.3     1  LIG1       -0.3768
     34 C           0.8094    5.3579    0.0506 C.3     3  LIG3        0.0245
     35 H           1.8786    5.3956    0.0673 H       3  LIG3        0.0451
     36 H           0.4572    4.8407    0.9187 H       3  LIG3        0.0451
     37 H           0.4844    4.8417   -0.8284 H       3  LIG3        0.1406
     38 N          -1.3555    9.0220    0.0317 N.4     5  LIG5        0.3770
     39 H          -0.4717    9.0338   -0.4360 H       4  UNK4       -0.0942
     40 H          -1.9883    9.6391   -0.4360 H       4  UNK4       -0.0942
     41 C          -4.1610    8.3391   -0.0144 C.ar    1  LIG1        0.0700
     42 C          -4.0401    9.7110   -0.0016 C.ar    1  LIG1        0.1570
     43 C          -5.3209   10.3515   -0.0181 C.ar    1  LIG1        0.0746
     44 C          -6.3455    9.4316   -0.0417 C.ar    1  LIG1        0.0006
     45 S          -5.7639    7.8638   -0.0443 S.2     1  LIG1       -0.0905
     46 H          -7.6151    9.7108   -0.0601 H       1  LIG1        0.0713
     47 O          -2.9180   10.3671    0.0222 O.3     1  LIG1       -0.4782
     48 C          -1.8256    9.4444    0.0309 C.3     1  LIG1        0.1806
     49 H          -0.9023    9.9848    0.0504 H       1  LIG1        0.0811
     50 H          -1.8922    8.8209    0.8980 H       4  UNK4       -0.0942
     51 H          -1.8648    8.8369   -0.8490 H       4  UNK4       -0.0942
     52 N          -5.4695   11.6430   -0.0111 N.pl3   1  LIG1       -0.3547
     53 H          -4.6967   12.0699   -0.4808 H       1  LIG1        0.1424
     54 H          -6.3189   11.8833   -0.4808 H       1  LIG1        0.1424
@<TRIPOS>BOND
     1    11     8    1
     2    24    12    1
     3    51    38    1
     4    37    25    1
     5    54    52    1
     6    53    52    1
     7    14    12    1
     8    13    12    1
     9    27    33    1
    10    40    38    1
    11    39    38    1
    12    46    44    1
    13    45    44   ar
    14    45    41   ar
    15    44    43   ar
    16    32    31    1
    17    32    28    1
    18    43    52    1
    19    43    42   ar
    20    41    31    1
    21    41    42   ar
    22    31    30    2
    23    42    47    1
    24    12    23    1
    25     9     8    1
    26     6     1    1
    27     8     7    1
    28     8    10    1
    29     7     2    1
    30     1     2    2
    31     1     5    1
    32     3     4    1
    33     4     5    1
    34     4    15    2
    35    22    21    1
    36    21    20    1
    37    25    34    1
    38    20    16    1
    39    15    16    1
    40    15    19    1
    41    19    18    1
    42    18    28    2
    43    28    29    1
    44    47    48    1
    45    29    33    1
    46    48    49    1
    47    38    50    1
    48    34    35    1
    49    34    36    1
