@<TRIPOS>MOLECULE
mol_data/noopt/geoms/mol2/5lh5lh5lh-5lh.out
 54 49 0 0 0
SMALL
GASTEIGER

@<TRIPOS>ATOM
      1 C          -2.0792   -1.7080   -0.0002 C.2     1  LIG1        0.0216
      2 C          -0.7020   -1.7080   -0.0002 C.2     1  LIG1        0.1685
      3 C          -0.1766   -0.3757   -0.0002 C.3     2  LIG2        0.0000
      4 C          -1.1831    0.5643    0.0006 C.2     1  LIG1        0.0395
      5 S          -2.6937   -0.1528    0.0006 S.3     1  LIG1       -0.0915
      6 H          -2.8374   -2.7640   -0.0008 H       1  LIG1        0.0731
      7 O           0.0503   -2.7682   -0.0004 O.2     1  LIG1       -0.4909
      8 C          -0.7728   -3.9376   -0.0005 C.3     1  LIG1        0.0790
      9 H          -0.1533   -4.8099   -0.0009 H       1  LIG1        0.0660
     10 H          -1.3905   -3.9391    0.8733 H       1  LIG1        0.0660
     11 H          -1.3908   -3.9387   -0.8740 H       1  LIG1        0.0660
     12 N           1.0969   -0.1143   -0.0009 N.3     2  LIG2       -0.2553
     13 H           1.5873   -0.8472   -0.4725 H       3  UNK3        0.0000
     14 H           1.2590    0.7524   -0.4725 H       1  LIG1        0.2109
     15 C          -1.0166    1.8536    0.0014 C.2     1  LIG1        0.0427
     16 C           0.1956    2.5069    0.0205 C.3     1  LIG1        0.1706
     17 C           0.0262    3.9290    0.0147 C.3     1  LIG1        0.0384
     18 C          -1.3056    4.2790   -0.0075 C.2     1  LIG1        0.0117
     19 S          -2.2951    2.9311   -0.0215 S.3     1  LIG1       -0.0924
     20 O           1.3607    1.9305    0.0410 O.3     1  LIG1       -0.3768
     21 C           1.1906    0.5107    0.0485 C.3     2  LIG2        0.0245
     22 H           2.1498    0.0366    0.0652 H       2  LIG2        0.0451
     23 H           0.6352    0.2225    0.9165 H       2  LIG2        0.0451
     24 H           0.6597    0.2104   -0.8306 H       2  LIG2        0.1406
     25 N           1.0231    4.7633    0.0291 N.4     4  LIG4        0.3770
     26 H           1.8067    4.3543   -0.4386 H       3  UNK3       -0.0942
     27 H           0.7588    5.6066   -0.4386 H       3  UNK3       -0.0942
     28 C          -1.7706    5.4930   -0.0170 C.2     1  LIG1        0.0388
     29 C          -1.0134    6.6433   -0.0043 C.3     1  LIG1        0.1747
     30 C          -1.8371    7.8147   -0.0210 C.2     1  LIG1        0.0076
     31 C          -3.1754    7.4910   -0.0446 C.2     1  LIG1        0.0382
     32 S          -3.4072    5.8350   -0.0470 S.3     1  LIG1       -0.0880
     33 O           0.2857    6.6886    0.0196 O.3     1  LIG1       -0.3529
     34 C           0.8096    5.3581    0.0283 C.3     1  LIG1        0.1173
     35 H           1.8788    5.3958    0.0478 H       1  LIG1        0.0650
     36 H           0.4551    4.8408    0.8953 H       3  UNK3       -0.0942
     37 H           0.4869    4.8419   -0.8517 H       3  UNK3       -0.0942
     38 N          -1.3551    9.0221   -0.0141 N.4     5  LIG5        0.3770
     39 H          -0.4723    9.0313   -0.4838 H       4  LIG4       -0.0942
     40 H          -1.9889    9.6367   -0.4838 H       4  LIG4       -0.0942
     41 C          -4.1606    8.3390   -0.0631 C.ar    1  LIG1        0.0700
     42 C          -4.0397    9.7109   -0.0560 C.ar    1  LIG1        0.1570
     43 C          -5.3204   10.3513   -0.0823 C.ar    1  LIG1        0.0746
     44 C          -6.3449    9.4313   -0.1072 C.ar    1  LIG1        0.0006
     45 S          -5.7633    7.8636   -0.0994 S.2     1  LIG1       -0.0905
     46 H          -7.6143    9.7105   -0.1337 H       1  LIG1        0.0713
     47 O          -2.9178   10.3672   -0.0292 O.3     1  LIG1       -0.4782
     48 C          -1.8253    9.4445   -0.0194 C.3     1  LIG1        0.1806
     49 H          -0.9021    9.9850    0.0025 H       1  LIG1        0.0811
     50 H          -1.8935    8.8200    0.8468 H       4  LIG4       -0.0942
     51 H          -1.8627    8.8381   -0.9001 H       4  LIG4       -0.0942
     52 N          -5.4689   11.6428   -0.0821 N.pl3   1  LIG1       -0.3547
     53 H          -4.6959   12.0673   -0.5535 H       1  LIG1        0.1424
     54 H          -6.3181   11.8808   -0.5535 H       1  LIG1        0.1424
@<TRIPOS>BOND
     1    51    38    1
     2    11     8    1
     3    37    25    1
     4    24    12    1
     5    54    52    1
     6    53    52    1
     7    40    38    1
     8    39    38    1
     9    14    20    1
    10    27    25    1
    11    26    25    1
    12    46    44    1
    13    44    45   ar
    14    44    43   ar
    15    45    41   ar
    16    43    52    1
    17    43    42   ar
    18    41    42   ar
    19    41    31    1
    20    42    47    1
    21    32    31    1
    22    32    28    1
    23    31    30    2
    24    47    48    1
    25    19    18    1
    26    19    15    1
    27    48    49    1
    28    28    18    2
    29    28    29    1
    30    38    50    1
    31    18    17    1
    32    29    33    1
    33    12    21    1
    34     9     8    1
    35     6     1    1
    36     8     7    1
    37     8    10    1
    38     7     2    1
    39     2     1    2
    40     1     5    1
    41     5     4    1
    42     4    15    2
    43    15    16    1
    44    33    34    1
    45    16    20    1
    46    34    35    1
    47    25    36    1
    48    21    22    1
    49    21    23    1
