@<TRIPOS>MOLECULE
mol_data/noopt/geoms/mol2/5lh5lh-5lh5lh.out
 54 49 0 0 0
SMALL
GASTEIGER

@<TRIPOS>ATOM
      1 C          -2.0792   -1.7080   -0.0002 C.2     1  LIG1        0.0213
      2 C          -0.7020   -1.7080   -0.0002 C.2     1  LIG1        0.1685
      3 C          -0.1766   -0.3757   -0.0002 C.3     1  LIG1        0.0384
      4 C          -1.1831    0.5643    0.0006 C.2     1  LIG1        0.0115
      5 S          -2.6937   -0.1528    0.0006 S.3     1  LIG1       -0.0963
      6 H          -2.8374   -2.7640   -0.0008 H       1  LIG1        0.0731
      7 O           0.0503   -2.7682   -0.0004 O.2     1  LIG1       -0.4909
      8 C          -0.7728   -3.9376   -0.0005 C.3     1  LIG1        0.0790
      9 H          -0.1533   -4.8099   -0.0009 H       1  LIG1        0.0660
     10 H          -1.3905   -3.9391    0.8733 H       1  LIG1        0.0660
     11 H          -1.3908   -3.9387   -0.8740 H       1  LIG1        0.0660
     12 N           1.0969   -0.1143   -0.0009 N.4     2  LIG2        0.3770
     13 H           1.5873   -0.8472   -0.4725 H       1  LIG1       -0.0942
     14 H           1.2590    0.7524   -0.4725 H       1  LIG1       -0.0942
     15 C          -1.0166    1.8536    0.0014 C.2     1  LIG1        0.0385
     16 C           0.1958    2.5069    0.0015 C.3     1  LIG1        0.1747
     17 C           0.0263    3.9290    0.0017 C.3     1  LIG1        0.0384
     18 C          -1.3057    4.2790    0.0026 C.2     1  LIG1        0.0114
     19 S          -2.2953    2.9311    0.0023 S.3     1  LIG1       -0.0927
     20 O           1.3610    1.9305    0.0013 O.3     1  LIG1       -0.3529
     21 C           1.1911    0.5106    0.0011 C.3     1  LIG1        0.1173
     22 H           2.1504    0.0366    0.0007 H       1  LIG1        0.0650
     23 H           0.6482    0.2162    0.8749 H       1  LIG1       -0.0942
     24 H           0.6476    0.2165   -0.8724 H       1  LIG1       -0.0942
     25 N           1.0233    4.7632    0.0012 N.4     3  LIG3        0.3770
     26 H           1.8027    4.3508   -0.4704 H       2  LIG2       -0.0942
     27 H           0.7549    5.6032   -0.4704 H       2  LIG2       -0.0942
     28 C          -1.7708    5.4930    0.0035 C.2     1  LIG1        0.0349
     29 C          -1.0134    6.6433    0.0038 C.3     1  LIG1        0.1744
     30 C          -1.8373    7.8147    0.0042 C.3     4  LIG4        0.0000
     31 C          -3.1759    7.4910    0.0050 C.3     1  LIG1        0.0978
     32 S          -3.4076    5.8350    0.0046 S.3     1  LIG1       -0.1099
     33 O           0.2858    6.6886    0.0035 O.3     1  LIG1       -0.3529
     34 C           0.8098    5.3581    0.0033 C.3     1  LIG1        0.1173
     35 H           1.8792    5.3958    0.0028 H       1  LIG1        0.0650
     36 H           0.4715    4.8414    0.8771 H       2  LIG2       -0.0942
     37 H           0.4708    4.8413   -0.8702 H       2  LIG2       -0.0942
     38 N          -1.3553    9.0221    0.0038 N.3     4  LIG4       -0.2553
     39 H          -0.4735    9.0288   -0.4678 H       5  UNK5        0.0000
     40 H          -1.9901    9.6342   -0.4678 H       1  LIG1        0.2923
     41 C          -4.1612    8.3391    0.0062 C.ar    1  LIG1        0.0527
     42 C          -4.0402    9.7108    0.0254 C.ar    1  LIG1        0.1490
     43 C          -5.3212   10.3513    0.0201 C.ar    1  LIG1        0.0740
     44 C          -6.3459    9.4314   -0.0022 C.ar    1  LIG1        0.0003
     45 S          -5.7642    7.8638   -0.0165 S.2     1  LIG1       -0.0945
     46 H          -7.6155    9.7107   -0.0114 H       1  LIG1        0.0713
     47 O          -2.9181   10.3669    0.0458 O.3     1  LIG1       -0.5041
     48 C          -1.8257    9.4441    0.0533 C.3     4  LIG4        0.0245
     49 H          -0.9024    9.9845    0.0699 H       4  LIG4        0.0451
     50 H          -1.8904    8.8218    0.9213 H       4  LIG4        0.0451
     51 H          -1.8669    8.8355   -0.8258 H       4  LIG4        0.1406
     52 N          -5.4697   11.6427    0.0347 N.pl3   1  LIG1       -0.3547
     53 H          -4.6972   12.0724   -0.4330 H       1  LIG1        0.1424
     54 H          -6.3195   11.8858   -0.4330 H       1  LIG1        0.1424
@<TRIPOS>BOND
     1    11     8    1
     2    24    12    1
     3    37    25    1
     4    51    38    1
     5    14    12    1
     6    13    12    1
     7    27    25    1
     8    26    25    1
     9    40    47    1
    10    54    52    1
    11    53    52    1
    12    45    44   ar
    13    45    41   ar
    14    46    44    1
    15    44    43   ar
    16    12    23    1
    17     9     8    1
    18     6     1    1
    19     8     7    1
    20     8    10    1
    21     7     2    1
    22     1     2    2
    23     1     5    1
    24     3     4    1
    25     4     5    1
    26     4    15    2
    27    22    21    1
    28    21    20    1
    29    25    36    1
    30    20    16    1
    31    15    16    1
    32    15    19    1
    33    17    18    1
    34    19    18    1
    35    18    28    2
    36    35    34    1
    37    34    33    1
    38    33    29    1
    39    28    29    1
    40    28    32    1
    41    38    48    1
    42    32    31    1
    43    31    41    1
    44    41    42   ar
    45    43    42   ar
    46    43    52    1
    47    42    47    1
    48    48    49    1
    49    48    50    1
