@<TRIPOS>MOLECULE
mol_data/noopt/geoms/mol2/5li.out
 16 16 0 0 0
SMALL
GASTEIGER

@<TRIPOS>ATOM
      1 C          -2.0792   -1.7080   -0.0002 C.ar    1  LIG1        0.0176
      2 C          -0.7020   -1.7080   -0.0002 C.ar    1  LIG1        0.1300
      3 C          -0.1766   -0.3757   -0.0002 C.ar    1  LIG1       -0.0018
      4 C          -1.1831    0.5643    0.0006 C.ar    1  LIG1       -0.0178
      5 S          -2.6937   -0.1528    0.0006 S.2     1  LIG1       -0.1011
      6 H          -2.8374   -2.7640   -0.0008 H       1  LIG1        0.0730
      7 H          -1.0166    1.8536    0.0014 H       1  LIG1        0.0697
      8 O           0.0503   -2.7682   -0.0004 O.3     1  LIG1       -0.4943
      9 C          -0.7728   -3.9376   -0.0005 C.3     1  LIG1        0.0788
     10 H          -0.1533   -4.8099   -0.0009 H       1  LIG1        0.0660
     11 H          -1.3905   -3.9391    0.8733 H       1  LIG1        0.0660
     12 H          -1.3908   -3.9387   -0.8740 H       1  LIG1        0.0660
     13 C           1.0972   -0.1142   -0.0009 C.3     1  LIG1       -0.0357
     14 H           1.2712    0.8133    0.5033 H       1  LIG1        0.0279
     15 H           1.4460   -0.0426   -1.0099 H       1  LIG1        0.0279
     16 H           1.6224   -0.8983    0.5033 H       1  LIG1        0.0279
@<TRIPOS>BOND
     1    15    13    1
     2    12     9    1
     3    13     3    1
     4    13    16    1
     5    13    14    1
     6    10     9    1
     7     6     1    1
     8     9     8    1
     9     9    11    1
    10     8     2    1
    11     1     2   ar
    12     1     5   ar
    13     2     3   ar
    14     3     4   ar
    15     4     5   ar
    16     4     7    1
