@<TRIPOS>MOLECULE
mol_data/noopt/geoms/mol2/5li5li5li-.out
 44 38 0 0 0
SMALL
GASTEIGER

@<TRIPOS>ATOM
      1 C          -2.0792   -1.7080   -0.0002 C.2     1  LIG1        0.0216
      2 C          -0.7020   -1.7080   -0.0002 C.2     1  LIG1        0.1685
      3 C          -0.1766   -0.3757   -0.0002 C.3     2  LIG2        0.0000
      4 C          -1.1831    0.5643    0.0006 C.2     1  LIG1        0.0395
      5 S          -2.6937   -0.1528    0.0006 S.3     1  LIG1       -0.0915
      6 H          -2.8374   -2.7640   -0.0008 H       1  LIG1        0.0731
      7 O           0.0503   -2.7682   -0.0004 O.2     1  LIG1       -0.4909
      8 C          -0.7728   -3.9376   -0.0005 C.3     1  LIG1        0.0790
      9 H          -0.1533   -4.8099   -0.0009 H       1  LIG1        0.0660
     10 H          -1.3905   -3.9391    0.8733 H       1  LIG1        0.0660
     11 H          -1.3908   -3.9387   -0.8740 H       1  LIG1        0.0660
     12 C           1.0972   -0.1142   -0.0009 C.3     2  LIG2       -0.0619
     13 H           1.2712    0.8133    0.5033 H       1  LIG1        0.2109
     14 H           1.4460   -0.0426   -1.0099 H       3  UNK3        0.0000
     15 H           1.6224   -0.8983    0.5033 H       2  LIG2        0.0233
     16 C          -1.0166    1.8536    0.0014 C.2     1  LIG1        0.0430
     17 C           0.1956    2.5069    0.0205 C.3     1  LIG1        0.1706
     18 C           0.0262    3.9290    0.0147 C.2     1  LIG1        0.0076
     19 C          -1.3056    4.2790   -0.0075 C.2     1  LIG1        0.0381
     20 S          -2.2951    2.9311   -0.0215 S.3     1  LIG1       -0.0877
     21 O           1.3607    1.9305    0.0410 O.3     1  LIG1       -0.3768
     22 C           1.1906    0.5107    0.0485 C.3     2  LIG2       -0.0382
     23 H           2.1498    0.0366    0.0652 H       2  LIG2        0.0233
     24 H           0.6352    0.2225    0.9165 H       2  LIG2        0.0303
     25 H           0.6597    0.2104   -0.8306 H       2  LIG2        0.0233
     26 C           1.0233    4.7634    0.0291 C.3     4  LIG4       -0.0776
     27 H           0.7319    5.6588    0.5375 H       1  LIG1        0.2922
     28 H           1.3054    4.9995   -0.9757 H       5  UNK5        0.0000
     29 H           1.8532    4.3187    0.5374 H       3  UNK3        0.0194
     30 C          -1.7706    5.4930   -0.0170 C.ar    1  LIG1        0.0681
     31 C          -1.0134    6.6433   -0.0043 C.ar    1  LIG1        0.1350
     32 C          -1.8371    7.8147   -0.0210 C.ar    1  LIG1       -0.0014
     33 C          -3.1754    7.4910   -0.0446 C.ar    1  LIG1       -0.0172
     34 S          -3.4072    5.8350   -0.0470 S.2     1  LIG1       -0.0921
     35 H          -4.1606    8.3390   -0.0631 H       1  LIG1        0.0697
     36 O           0.2857    6.6886    0.0196 O.3     1  LIG1       -0.5053
     37 C           0.8096    5.3581    0.0283 C.3     6  LIG6        0.0000
     38 H           1.8788    5.3958    0.0478 H       3  UNK3        0.0194
     39 H           0.4551    4.8408    0.8953 H       3  UNK3        0.0194
     40 H           0.4869    4.8419   -0.8517 H       3  UNK3        0.0194
     41 C          -1.3550    9.0224   -0.0141 C.3     1  LIG1       -0.0357
     42 H          -2.0352    9.6750    0.4922 H       1  LIG1        0.0279
     43 H          -1.2209    9.3586   -1.0211 H       1  LIG1        0.0279
     44 H          -0.4124    9.0273    0.4921 H       1  LIG1        0.0279
@<TRIPOS>BOND
     1    43    41    1
     2    11     8    1
     3    40    26    1
     4    25    12    1
     5    35    33    1
     6    34    33   ar
     7    34    30   ar
     8    33    32   ar
     9    20    19    1
    10    20    16    1
    11    32    41    1
    12    32    31   ar
    13    30    19    1
    14    30    31   ar
    15    41    44    1
    16    41    42    1
    17    19    18    2
    18    31    36    1
    19    12    22    1
    20    12    23    1
    21    12    15    1
    22     9     8    1
    23     6     1    1
    24     8     7    1
    25     8    10    1
    26     7     2    1
    27     2     1    2
    28     1     5    1
    29     4     5    1
    30     4    16    2
    31    16    17    1
    32    36    27    1
    33    17    21    1
    34    26    38    1
    35    26    29    1
    36    26    39    1
    37    21    13    1
    38    22    24    1
