@<TRIPOS>MOLECULE
mol_data/noopt/geoms/mol2/5li5li-.out
 30 27 0 0 0
SMALL
GASTEIGER

@<TRIPOS>ATOM
      1 C          -2.0792   -1.7080   -0.0002 C.2     1  LIG1        0.0216
      2 C          -0.7020   -1.7080   -0.0002 C.2     1  LIG1        0.1685
      3 C          -0.1766   -0.3757   -0.0002 C.2     1  LIG1        0.0076
      4 C          -1.1831    0.5643    0.0006 C.2     1  LIG1        0.0379
      5 S          -2.6937   -0.1528    0.0006 S.3     1  LIG1       -0.0917
      6 H          -2.8374   -2.7640   -0.0008 H       1  LIG1        0.0731
      7 O           0.0503   -2.7682   -0.0004 O.2     1  LIG1       -0.4909
      8 C          -0.7728   -3.9376   -0.0005 C.3     1  LIG1        0.0790
      9 H          -0.1533   -4.8099   -0.0009 H       1  LIG1        0.0660
     10 H          -1.3905   -3.9391    0.8733 H       1  LIG1        0.0660
     11 H          -1.3908   -3.9387   -0.8740 H       1  LIG1        0.0660
     12 C           1.0972   -0.1142   -0.0009 C.3     2  LIG2       -0.0776
     13 H           1.2712    0.8133    0.5033 H       1  LIG1        0.2922
     14 H           1.4460   -0.0426   -1.0099 H       3  UNK3        0.0000
     15 H           1.6224   -0.8983    0.5033 H       1  LIG1        0.0194
     16 C          -1.0166    1.8536    0.0014 C.ar    1  LIG1        0.0681
     17 C           0.1958    2.5069    0.0015 C.ar    1  LIG1        0.1350
     18 C           0.0263    3.9290    0.0017 C.ar    1  LIG1       -0.0014
     19 C          -1.3057    4.2790    0.0026 C.ar    1  LIG1       -0.0172
     20 S          -2.2953    2.9311    0.0023 S.2     1  LIG1       -0.0921
     21 H          -1.7708    5.4930    0.0035 H       1  LIG1        0.0697
     22 O           1.3610    1.9305    0.0013 O.3     1  LIG1       -0.5053
     23 C           1.1911    0.5106    0.0011 C.3     4  LIG4        0.0000
     24 H           2.1504    0.0366    0.0007 H       1  LIG1        0.0194
     25 H           0.6482    0.2162    0.8749 H       1  LIG1        0.0194
     26 H           0.6476    0.2165   -0.8724 H       1  LIG1        0.0194
     27 C           1.0235    4.7634    0.0012 C.3     1  LIG1       -0.0357
     28 H           0.7366    5.6625    0.5055 H       1  LIG1        0.0279
     29 H           1.2967    4.9921   -1.0078 H       1  LIG1        0.0279
     30 H           1.8579    4.3223    0.5054 H       1  LIG1        0.0279
@<TRIPOS>BOND
     1    29    27    1
     2    11     8    1
     3    26    12    1
     4    12    24    1
     5    12    15    1
     6    12    25    1
     7     9     8    1
     8     6     1    1
     9     8     7    1
    10     8    10    1
    11     7     2    1
    12     2     1    2
    13     3     4    2
    14     1     5    1
    15     4     5    1
    16     4    16    1
    17    27    18    1
    18    27    30    1
    19    27    28    1
    20    22    17    1
    21    22    13    1
    22    16    17   ar
    23    16    20   ar
    24    17    18   ar
    25    18    19   ar
    26    20    19   ar
    27    19    21    1
