@<TRIPOS>MOLECULE
mol_data/noopt/geoms/mol2/5li5li-5li5li.out
 58 49 0 0 0
SMALL
GASTEIGER

@<TRIPOS>ATOM
      1 C          -2.0792   -1.7080   -0.0002 C.2     1  LIG1        0.0213
      2 C          -0.7020   -1.7080   -0.0002 C.2     1  LIG1        0.1685
      3 C          -0.1766   -0.3757   -0.0002 C.3     1  LIG1        0.0384
      4 C          -1.1831    0.5643    0.0006 C.2     1  LIG1        0.0114
      5 S          -2.6937   -0.1528    0.0006 S.3     1  LIG1       -0.0963
      6 H          -2.8374   -2.7640   -0.0008 H       1  LIG1        0.0731
      7 O           0.0503   -2.7682   -0.0004 O.2     1  LIG1       -0.4909
      8 C          -0.7728   -3.9376   -0.0005 C.3     1  LIG1        0.0790
      9 H          -0.1533   -4.8099   -0.0009 H       1  LIG1        0.0660
     10 H          -1.3905   -3.9391    0.8733 H       1  LIG1        0.0660
     11 H          -1.3908   -3.9387   -0.8740 H       1  LIG1        0.0660
     12 C           1.0972   -0.1142   -0.0009 C.3     2  LIG2       -0.0776
     13 H           1.2712    0.8133    0.5033 H       1  LIG1        0.2109
     14 H           1.4460   -0.0426   -1.0099 H       3  UNK3        0.0000
     15 H           1.6224   -0.8983    0.5033 H       1  LIG1        0.0194
     16 C          -1.0166    1.8536    0.0014 C.2     1  LIG1        0.0382
     17 C           0.1958    2.5069    0.0015 C.3     1  LIG1        0.1703
     18 C           0.0263    3.9290    0.0017 C.3     1  LIG1        0.0384
     19 C          -1.3057    4.2790    0.0026 C.2     1  LIG1        0.0114
     20 S          -2.2953    2.9311    0.0023 S.3     1  LIG1       -0.0927
     21 O           1.3610    1.9305    0.0013 O.3     1  LIG1       -0.3768
     22 C           1.1911    0.5106    0.0011 C.3     4  LIG4        0.0000
     23 H           2.1504    0.0366    0.0007 H       1  LIG1        0.0194
     24 H           0.6482    0.2162    0.8749 H       1  LIG1        0.0194
     25 H           0.6476    0.2165   -0.8724 H       1  LIG1        0.0194
     26 C           1.0235    4.7634    0.0012 C.3     5  LIG5       -0.0776
     27 H           0.7366    5.6625    0.5055 H       1  LIG1        0.2109
     28 H           1.2967    4.9921   -1.0078 H       6  UNK6        0.0000
     29 H           1.8579    4.3223    0.5054 H       3  UNK3        0.0194
     30 C          -1.7708    5.4930    0.0035 C.2     1  LIG1        0.0346
     31 C          -1.0134    6.6433    0.0038 C.3     1  LIG1        0.1699
     32 C          -1.8373    7.8147    0.0042 C.3     7  LIG7        0.0000
     33 C          -3.1759    7.4910    0.0050 C.3     1  LIG1        0.0977
     34 S          -3.4076    5.8350    0.0046 S.3     1  LIG1       -0.1099
     35 O           0.2858    6.6886    0.0035 O.3     1  LIG1       -0.3768
     36 C           0.8098    5.3581    0.0033 C.3     8  LIG8        0.0000
     37 H           1.8792    5.3958    0.0028 H       3  UNK3        0.0194
     38 H           0.4715    4.8414    0.8771 H       3  UNK3        0.0194
     39 H           0.4708    4.8413   -0.8702 H       3  UNK3        0.0194
     40 C          -1.3552    9.0224    0.0038 C.3     6  UNK6       -0.0619
     41 H          -2.0343    9.6777    0.5081 H       1  LIG1        0.2922
     42 H          -1.2231    9.3534   -1.0052 H       9  UNK9        0.0000
     43 H          -0.4115    9.0299    0.5080 H       6  UNK6        0.0233
     44 C          -4.1612    8.3391    0.0062 C.ar    1  LIG1        0.0511
     45 C          -4.0402    9.7108    0.0254 C.ar    1  LIG1        0.1314
     46 C          -5.3212   10.3513    0.0201 C.ar    1  LIG1       -0.0017
     47 C          -6.3459    9.4314   -0.0022 C.ar    1  LIG1       -0.0175
     48 S          -5.7642    7.8638   -0.0165 S.2     1  LIG1       -0.0961
     49 H          -7.6155    9.7107   -0.0114 H       1  LIG1        0.0697
     50 O          -2.9181   10.3669    0.0458 O.3     1  LIG1       -0.5056
     51 C          -1.8257    9.4441    0.0533 C.3     6  UNK6       -0.0382
     52 H          -0.9024    9.9845    0.0699 H       6  UNK6        0.0233
     53 H          -1.8904    8.8218    0.9213 H       6  UNK6        0.0303
     54 H          -1.8669    8.8355   -0.8258 H       6  UNK6        0.0233
     55 C          -5.4698   11.6430    0.0347 C.3     1  LIG1       -0.0357
     56 H          -6.3778   11.8919    0.5431 H       1  LIG1        0.0279
     57 H          -5.5119   12.0086   -0.9701 H       1  LIG1        0.0279
     58 H          -4.6419   12.0915    0.5430 H       1  LIG1        0.0279
@<TRIPOS>BOND
     1    57    55    1
     2    11     8    1
     3    25    12    1
     4    39    26    1
     5    54    40    1
     6    48    47   ar
     7    48    44   ar
     8    49    47    1
     9    47    46   ar
    10    12    23    1
    11    12    15    1
    12    12    24    1
    13     9     8    1
    14     6     1    1
    15     8     7    1
    16     8    10    1
    17     7     2    1
    18     1     2    2
    19     1     5    1
    20     3     4    1
    21     5     4    1
    22     4    16    2
    23    26    37    1
    24    26    29    1
    25    26    38    1
    26    21    17    1
    27    21    13    1
    28    16    17    1
    29    16    20    1
    30    18    19    1
    31    20    19    1
    32    19    30    2
    33    35    31    1
    34    35    27    1
    35    30    31    1
    36    30    34    1
    37    40    51    1
    38    40    52    1
    39    40    43    1
    40    34    33    1
    41    33    44    1
    42    44    45   ar
    43    46    45   ar
    44    46    55    1
    45    45    50    1
    46    55    58    1
    47    55    56    1
    48    50    41    1
    49    51    53    1
