@<TRIPOS>MOLECULE
mol_data/noopt/geoms/mol2/5li5li-5li-.out
 44 38 0 0 0
SMALL
GASTEIGER

@<TRIPOS>ATOM
      1 C          -2.0792   -1.7080   -0.0002 C.2     1  LIG1        0.0213
      2 C          -0.7020   -1.7080   -0.0002 C.2     1  LIG1        0.1685
      3 C          -0.1766   -0.3757   -0.0002 C.3     1  LIG1        0.0384
      4 C          -1.1831    0.5643    0.0006 C.2     1  LIG1        0.0111
      5 S          -2.6937   -0.1528    0.0006 S.3     1  LIG1       -0.0964
      6 H          -2.8374   -2.7640   -0.0008 H       1  LIG1        0.0731
      7 O           0.0503   -2.7682   -0.0004 O.2     1  LIG1       -0.4909
      8 C          -0.7728   -3.9376   -0.0005 C.3     1  LIG1        0.0790
      9 H          -0.1533   -4.8099   -0.0009 H       1  LIG1        0.0660
     10 H          -1.3905   -3.9391    0.8733 H       1  LIG1        0.0660
     11 H          -1.3908   -3.9387   -0.8740 H       1  LIG1        0.0660
     12 C           1.0972   -0.1142   -0.0009 C.3     2  LIG2       -0.0776
     13 H           1.2712    0.8133    0.5033 H       1  LIG1        0.2109
     14 H           1.4460   -0.0426   -1.0099 H       3  UNK3        0.0000
     15 H           1.6224   -0.8983    0.5033 H       1  LIG1        0.0194
     16 C          -1.0166    1.8536    0.0014 C.2     1  LIG1        0.0346
     17 C           0.1958    2.5069    0.0015 C.3     1  LIG1        0.1699
     18 C           0.0263    3.9290    0.0017 C.3     4  LIG4        0.0000
     19 C          -1.3057    4.2790    0.0026 C.3     1  LIG1        0.0977
     20 S          -2.2953    2.9311    0.0023 S.3     1  LIG1       -0.1099
     21 O           1.3610    1.9305    0.0013 O.3     1  LIG1       -0.3768
     22 C           1.1911    0.5106    0.0011 C.3     5  LIG5        0.0000
     23 H           2.1504    0.0366    0.0007 H       1  LIG1        0.0194
     24 H           0.6482    0.2162    0.8749 H       1  LIG1        0.0194
     25 H           0.6476    0.2165   -0.8724 H       1  LIG1        0.0194
     26 C           1.0235    4.7634    0.0012 C.3     4  LIG4       -0.0619
     27 H           0.7366    5.6625    0.5055 H       1  LIG1        0.2922
     28 H           1.2967    4.9921   -1.0078 H       6  UNK6        0.0000
     29 H           1.8579    4.3223    0.5054 H       4  LIG4        0.0233
     30 C          -1.7708    5.4930    0.0035 C.ar    1  LIG1        0.0511
     31 C          -1.0136    6.6432    0.0227 C.ar    1  LIG1        0.1314
     32 C          -1.8374    7.8147    0.0172 C.ar    1  LIG1       -0.0017
     33 C          -3.1758    7.4910   -0.0051 C.ar    1  LIG1       -0.0175
     34 S          -3.4074    5.8351   -0.0192 S.2     1  LIG1       -0.0961
     35 H          -4.1610    8.3391   -0.0144 H       1  LIG1        0.0697
     36 O           0.2855    6.6885    0.0432 O.3     1  LIG1       -0.5056
     37 C           0.8094    5.3579    0.0506 C.3     4  LIG4       -0.0382
     38 H           1.8786    5.3956    0.0673 H       4  LIG4        0.0233
     39 H           0.4572    4.8407    0.9187 H       4  LIG4        0.0303
     40 H           0.4844    4.8417   -0.8284 H       4  LIG4        0.0233
     41 C          -1.3554    9.0223    0.0317 C.3     1  LIG1       -0.0357
     42 H          -2.0366    9.6722    0.5401 H       1  LIG1        0.0279
     43 H          -1.2191    9.3640   -0.9731 H       1  LIG1        0.0279
     44 H          -0.4138    9.0244    0.5400 H       1  LIG1        0.0279
@<TRIPOS>BOND
     1    43    41    1
     2    11     8    1
     3    25    12    1
     4    40    26    1
     5    34    33   ar
     6    34    30   ar
     7    35    33    1
     8    33    32   ar
     9    12    23    1
    10    12    15    1
    11    12    24    1
    12     9     8    1
    13     6     1    1
    14     8     7    1
    15     8    10    1
    16     7     2    1
    17     1     2    2
    18     1     5    1
    19     3     4    1
    20     5     4    1
    21     4    16    2
    22    26    37    1
    23    26    38    1
    24    26    29    1
    25    21    17    1
    26    21    13    1
    27    16    17    1
    28    16    20    1
    29    20    19    1
    30    19    30    1
    31    30    31   ar
    32    32    31   ar
    33    32    41    1
    34    31    36    1
    35    41    44    1
    36    41    42    1
    37    36    27    1
    38    37    39    1
