@<TRIPOS>MOLECULE
mol_data/noopt/geoms/mol2/5li5li-5li.out
 44 38 0 0 0
SMALL
GASTEIGER

@<TRIPOS>ATOM
      1 C          -2.0792   -1.7080   -0.0002 C.2     1  LIG1        0.0213
      2 C          -0.7020   -1.7080   -0.0002 C.2     1  LIG1        0.1685
      3 C          -0.1766   -0.3757   -0.0002 C.3     1  LIG1        0.0384
      4 C          -1.1831    0.5643    0.0006 C.2     1  LIG1        0.0115
      5 S          -2.6937   -0.1528    0.0006 S.3     1  LIG1       -0.0963
      6 H          -2.8374   -2.7640   -0.0008 H       1  LIG1        0.0731
      7 O           0.0503   -2.7682   -0.0004 O.2     1  LIG1       -0.4909
      8 C          -0.7728   -3.9376   -0.0005 C.3     1  LIG1        0.0790
      9 H          -0.1533   -4.8099   -0.0009 H       1  LIG1        0.0660
     10 H          -1.3905   -3.9391    0.8733 H       1  LIG1        0.0660
     11 H          -1.3908   -3.9387   -0.8740 H       1  LIG1        0.0660
     12 C           1.0972   -0.1142   -0.0009 C.3     2  LIG2       -0.0776
     13 H           1.2712    0.8133    0.5033 H       1  LIG1        0.2109
     14 H           1.4460   -0.0426   -1.0099 H       3  UNK3        0.0000
     15 H           1.6224   -0.8983    0.5033 H       1  LIG1        0.0194
     16 C          -1.0166    1.8536    0.0014 C.2     1  LIG1        0.0385
     17 C           0.1958    2.5069    0.0015 C.3     1  LIG1        0.1703
     18 C           0.0263    3.9290    0.0017 C.2     1  LIG1        0.0076
     19 C          -1.3057    4.2790    0.0026 C.2     1  LIG1        0.0381
     20 S          -2.2953    2.9311    0.0023 S.3     1  LIG1       -0.0880
     21 O           1.3610    1.9305    0.0013 O.3     1  LIG1       -0.3768
     22 C           1.1911    0.5106    0.0011 C.3     4  LIG4        0.0000
     23 H           2.1504    0.0366    0.0007 H       1  LIG1        0.0194
     24 H           0.6482    0.2162    0.8749 H       1  LIG1        0.0194
     25 H           0.6476    0.2165   -0.8724 H       1  LIG1        0.0194
     26 C           1.0235    4.7634    0.0012 C.3     5  LIG5       -0.0776
     27 H           0.7366    5.6625    0.5055 H       1  LIG1        0.2922
     28 H           1.2967    4.9921   -1.0078 H       6  UNK6        0.0000
     29 H           1.8579    4.3223    0.5054 H       3  UNK3        0.0194
     30 C          -1.7708    5.4930    0.0035 C.ar    1  LIG1        0.0681
     31 C          -1.0134    6.6433    0.0038 C.ar    1  LIG1        0.1350
     32 C          -1.8373    7.8147    0.0042 C.ar    1  LIG1       -0.0014
     33 C          -3.1759    7.4910    0.0050 C.ar    1  LIG1       -0.0172
     34 S          -3.4076    5.8350    0.0046 S.2     1  LIG1       -0.0921
     35 H          -4.1612    8.3391    0.0062 H       1  LIG1        0.0697
     36 O           0.2858    6.6886    0.0035 O.3     1  LIG1       -0.5053
     37 C           0.8098    5.3581    0.0033 C.3     7  LIG7        0.0000
     38 H           1.8792    5.3958    0.0028 H       3  UNK3        0.0194
     39 H           0.4715    4.8414    0.8771 H       3  UNK3        0.0194
     40 H           0.4708    4.8413   -0.8702 H       3  UNK3        0.0194
     41 C          -1.3552    9.0224    0.0038 C.3     1  LIG1       -0.0357
     42 H          -2.0343    9.6777    0.5081 H       1  LIG1        0.0279
     43 H          -1.2231    9.3534   -1.0052 H       1  LIG1        0.0279
     44 H          -0.4115    9.0299    0.5080 H       1  LIG1        0.0279
@<TRIPOS>BOND
     1    43    41    1
     2    11     8    1
     3    25    12    1
     4    40    26    1
     5    12    23    1
     6    12    15    1
     7    12    24    1
     8     9     8    1
     9     6     1    1
    10     8     7    1
    11     8    10    1
    12     7     2    1
    13     1     2    2
    14     1     5    1
    15     3     4    1
    16     5     4    1
    17     4    16    2
    18    26    38    1
    19    26    29    1
    20    26    39    1
    21    21    17    1
    22    21    13    1
    23    16    17    1
    24    16    20    1
    25    18    19    2
    26    20    19    1
    27    19    30    1
    28    36    31    1
    29    36    27    1
    30    30    31   ar
    31    30    34   ar
    32    41    32    1
    33    41    44    1
    34    41    42    1
    35    31    32   ar
    36    32    33   ar
    37    34    33   ar
    38    33    35    1
