@<TRIPOS>MOLECULE
mol_data/noopt/geoms/mol2/5li5li5li5li.out
 58 49 0 0 0
SMALL
GASTEIGER

@<TRIPOS>ATOM
      1 C          -2.0792   -1.7080   -0.0002 C.2     1  LIG1        0.0216
      2 C          -0.7020   -1.7080   -0.0002 C.2     1  LIG1        0.1685
      3 C          -0.1766   -0.3757   -0.0002 C.3     2  LIG2        0.0000
      4 C          -1.1831    0.5643    0.0006 C.2     1  LIG1        0.0395
      5 S          -2.6937   -0.1528    0.0006 S.3     1  LIG1       -0.0915
      6 H          -2.8374   -2.7640   -0.0008 H       1  LIG1        0.0731
      7 O           0.0503   -2.7682   -0.0004 O.2     1  LIG1       -0.4909
      8 C          -0.7728   -3.9376   -0.0005 C.3     1  LIG1        0.0790
      9 H          -0.1533   -4.8099   -0.0009 H       1  LIG1        0.0660
     10 H          -1.3905   -3.9391    0.8733 H       1  LIG1        0.0660
     11 H          -1.3908   -3.9387   -0.8740 H       1  LIG1        0.0660
     12 C           1.0972   -0.1142   -0.0009 C.3     2  LIG2       -0.0619
     13 H           1.2712    0.8133    0.5033 H       1  LIG1        0.2109
     14 H           1.4460   -0.0426   -1.0099 H       3  UNK3        0.0000
     15 H           1.6224   -0.8983    0.5033 H       2  LIG2        0.0233
     16 C          -1.0166    1.8536    0.0014 C.2     1  LIG1        0.0430
     17 C           0.1956    2.5069    0.0205 C.3     1  LIG1        0.1706
     18 C           0.0262    3.9290    0.0147 C.3     4  LIG4        0.0000
     19 C          -1.3056    4.2790   -0.0075 C.2     1  LIG1        0.0396
     20 S          -2.2951    2.9311   -0.0215 S.3     1  LIG1       -0.0876
     21 O           1.3607    1.9305    0.0410 O.3     1  LIG1       -0.3768
     22 C           1.1906    0.5107    0.0485 C.3     2  LIG2       -0.0382
     23 H           2.1498    0.0366    0.0652 H       2  LIG2        0.0233
     24 H           0.6352    0.2225    0.9165 H       2  LIG2        0.0303
     25 H           0.6597    0.2104   -0.8306 H       2  LIG2        0.0233
     26 C           1.0233    4.7634    0.0291 C.3     4  LIG4       -0.0653
     27 H           0.7319    5.6588    0.5375 H       4  LIG4        0.0263
     28 H           1.3054    4.9995   -0.9757 H       5  UNK5        0.0000
     29 H           1.8532    4.3187    0.5374 H       4  LIG4        0.0230
     30 C          -1.7706    5.4930   -0.0170 C.2     1  LIG1        0.0427
     31 C          -1.0132    6.6432   -0.0232 C.3     1  LIG1        0.2152
     32 C          -1.8369    7.8147   -0.0340 C.3     6  LIG6        0.0000
     33 C          -3.1756    7.4910   -0.0345 C.3     1  LIG1        0.0977
     34 S          -3.4074    5.8350   -0.0232 S.3     1  LIG1       -0.1095
     35 O           0.2861    6.6885   -0.0202 O.3     1  LIG1       -0.2146
     36 C           0.8100    5.3579   -0.0191 C.3     4  LIG4       -0.0562
     37 H           1.8793    5.3956   -0.0167 H       4  LIG4        0.0230
     38 H           0.4694    4.8411    0.8538 H       4  LIG4        0.0230
     39 H           0.4733    4.8413   -0.8935 H       4  LIG4        0.0263
     40 C          -1.3548    9.0223   -0.0421 C.3     6  LIG6       -0.0619
     41 H          -2.0327    9.6804    0.4601 H       1  LIG1        0.2922
     42 H          -1.2249    9.3477   -1.0531 H       7  UNK7        0.0000
     43 H          -0.4100    9.0324    0.4601 H       6  LIG6        0.0233
     44 C          -4.1608    8.3391   -0.0426 C.ar    1  LIG1        0.0511
     45 C          -4.0399    9.7109   -0.0290 C.ar    1  LIG1        0.1314
     46 C          -5.3207   10.3514   -0.0442 C.ar    1  LIG1       -0.0017
     47 C          -6.3454    9.4315   -0.0677 C.ar    1  LIG1       -0.0175
     48 S          -5.7637    7.8638   -0.0716 S.2     1  LIG1       -0.0961
     49 H          -7.6149    9.7107   -0.0849 H       1  LIG1        0.0697
     50 O          -2.9178   10.3671   -0.0056 O.3     1  LIG1       -0.5056
     51 C          -1.8254    9.4443    0.0029 C.3     6  LIG6       -0.0382
     52 H          -0.9021    9.9848    0.0220 H       6  LIG6        0.0233
     53 H          -1.8918    8.8210    0.8701 H       6  LIG6        0.0303
     54 H          -1.8649    8.8367   -0.8769 H       6  LIG6        0.0233
     55 C          -5.4693   11.6432   -0.0363 C.3     1  LIG1       -0.0357
     56 H          -6.3776   11.8947    0.4703 H       1  LIG1        0.0279
     57 H          -5.5108   12.0036   -1.0430 H       1  LIG1        0.0279
     58 H          -4.6417   12.0943    0.4702 H       1  LIG1        0.0279
@<TRIPOS>BOND
     1    57    55    1
     2    39    36    1
     3    54    40    1
     4    11     8    1
     5    25    12    1
     6    49    47    1
     7    48    47   ar
     8    48    44   ar
     9    47    46   ar
    10    46    55    1
    11    46    45   ar
    12    44    33    1
    13    44    45   ar
    14    40    51    1
    15    40    52    1
    16    40    43    1
    17    55    58    1
    18    55    56    1
    19    33    34    1
    20    45    50    1
    21    31    35    1
    22    31    30    1
    23    34    30    1
    24    20    19    1
    25    20    16    1
    26    36    26    1
    27    36    27    1
    28    30    19    2
    29    37    26    1
    30    50    41    1
    31    12    22    1
    32    12    23    1
    33    12    15    1
    34     9     8    1
    35     6     1    1
    36     8     7    1
    37     8    10    1
    38     7     2    1
    39     1     2    2
    40     1     5    1
    41     4     5    1
    42     4    16    2
    43    16    17    1
    44    51    53    1
    45    17    21    1
    46    26    29    1
    47    26    38    1
    48    21    13    1
    49    22    24    1
