@<TRIPOS>MOLECULE
mol_data/noopt/geoms/mol2/5li5li-5li-5li-.out
 58 49 0 0 0
SMALL
GASTEIGER

@<TRIPOS>ATOM
      1 C          -2.0792   -1.7080   -0.0002 C.2     1  LIG1        0.0213
      2 C          -0.7020   -1.7080   -0.0002 C.2     1  LIG1        0.1685
      3 C          -0.1766   -0.3757   -0.0002 C.3     1  LIG1        0.0384
      4 C          -1.1831    0.5643    0.0006 C.2     1  LIG1        0.0115
      5 S          -2.6937   -0.1528    0.0006 S.3     1  LIG1       -0.0963
      6 H          -2.8374   -2.7640   -0.0008 H       1  LIG1        0.0731
      7 O           0.0503   -2.7682   -0.0004 O.2     1  LIG1       -0.4909
      8 C          -0.7728   -3.9376   -0.0005 C.3     1  LIG1        0.0790
      9 H          -0.1533   -4.8099   -0.0009 H       1  LIG1        0.0660
     10 H          -1.3905   -3.9391    0.8733 H       1  LIG1        0.0660
     11 H          -1.3908   -3.9387   -0.8740 H       1  LIG1        0.0660
     12 C           1.0972   -0.1142   -0.0009 C.3     2  LIG2       -0.0776
     13 H           1.2712    0.8133    0.5033 H       1  LIG1        0.2109
     14 H           1.4460   -0.0426   -1.0099 H       3  UNK3        0.0000
     15 H           1.6224   -0.8983    0.5033 H       1  LIG1        0.0194
     16 C          -1.0166    1.8536    0.0014 C.2     1  LIG1        0.0385
     17 C           0.1958    2.5069    0.0015 C.3     1  LIG1        0.1703
     18 C           0.0263    3.9290    0.0017 C.3     4  LIG4        0.0000
     19 C          -1.3057    4.2790    0.0026 C.2     1  LIG1        0.0395
     20 S          -2.2953    2.9311    0.0023 S.3     1  LIG1       -0.0879
     21 O           1.3610    1.9305    0.0013 O.3     1  LIG1       -0.3768
     22 C           1.1911    0.5106    0.0011 C.3     5  LIG5        0.0000
     23 H           2.1504    0.0366    0.0007 H       1  LIG1        0.0194
     24 H           0.6482    0.2162    0.8749 H       1  LIG1        0.0194
     25 H           0.6476    0.2165   -0.8724 H       1  LIG1        0.0194
     26 C           1.0235    4.7634    0.0012 C.3     4  LIG4       -0.0619
     27 H           0.7366    5.6625    0.5055 H       1  LIG1        0.2109
     28 H           1.2967    4.9921   -1.0078 H       6  UNK6        0.0000
     29 H           1.8579    4.3223    0.5054 H       4  LIG4        0.0233
     30 C          -1.7708    5.4930    0.0035 C.2     1  LIG1        0.0391
     31 C          -1.0136    6.6432    0.0227 C.3     1  LIG1        0.1703
     32 C          -1.8374    7.8147    0.0172 C.3     7  LIG7        0.0000
     33 C          -3.1758    7.4910   -0.0051 C.3     1  LIG1        0.0979
     34 S          -3.4074    5.8351   -0.0192 S.3     1  LIG1       -0.1096
     35 O           0.2855    6.6885    0.0432 O.3     1  LIG1       -0.3768
     36 C           0.8094    5.3579    0.0506 C.3     4  LIG4       -0.0382
     37 H           1.8786    5.3956    0.0673 H       4  LIG4        0.0233
     38 H           0.4572    4.8407    0.9187 H       4  LIG4        0.0303
     39 H           0.4844    4.8417   -0.8284 H       4  LIG4        0.0233
     40 C          -1.3554    9.0223    0.0317 C.3     6  UNK6       -0.0653
     41 H          -2.0366    9.6722    0.5401 H       6  UNK6        0.0263
     42 H          -1.2191    9.3640   -0.9731 H       8  UNK8        0.0000
     43 H          -0.4138    9.0244    0.5400 H       6  UNK6        0.0230
     44 C          -4.1610    8.3391   -0.0144 C.ar    1  LIG1        0.0564
     45 C          -4.0399    9.7110   -0.0205 C.ar    1  LIG1        0.1934
     46 C          -5.3208   10.3515   -0.0311 C.ar    1  LIG1        0.0036
     47 C          -6.3457    9.4315   -0.0316 C.ar    1  LIG1       -0.0174
     48 S          -5.7642    7.8638   -0.0205 S.2     1  LIG1       -0.0959
     49 H          -7.6153    9.7107   -0.0396 H       1  LIG1        0.0697
     50 O          -2.9176   10.3672   -0.0175 O.3     1  LIG1       -0.2867
     51 C          -1.8252    9.4444   -0.0165 C.3     6  UNK6       -0.0562
     52 H          -0.9017    9.9849   -0.0141 H       6  UNK6        0.0230
     53 H          -1.8798    8.8279    0.8565 H       6  UNK6        0.0230
     54 H          -1.8766    8.8299   -0.8908 H       6  UNK6        0.0263
     55 C          -5.4692   11.6433   -0.0391 C.3     1  LIG1       -0.0356
     56 H          -6.3782   11.9010    0.4632 H       1  LIG1        0.0279
     57 H          -5.5093   11.9915   -1.0501 H       1  LIG1        0.0279
     58 H          -4.6423   12.1004    0.4631 H       1  LIG1        0.0279
@<TRIPOS>BOND
     1    57    55    1
     2    54    51    1
     3    11     8    1
     4    25    12    1
     5    39    26    1
     6    49    47    1
     7    55    46    1
     8    55    58    1
     9    55    56    1
    10    47    46   ar
    11    47    48   ar
    12    46    45   ar
    13    45    50    1
    14    45    44   ar
    15    48    44   ar
    16    34    33    1
    17    34    30    1
    18    51    40    1
    19    51    41    1
    20    44    33    1
    21    52    40    1
    22    12    23    1
    23    12    15    1
    24    12    24    1
    25     9     8    1
    26     6     1    1
    27     8     7    1
    28     8    10    1
    29     7     2    1
    30     1     2    2
    31     1     5    1
    32     3     4    1
    33     5     4    1
    34     4    16    2
    35    26    36    1
    36    26    37    1
    37    26    29    1
    38    21    17    1
    39    21    13    1
    40    16    17    1
    41    16    20    1
    42    20    19    1
    43    19    30    2
    44    30    31    1
    45    31    35    1
    46    40    43    1
    47    40    53    1
    48    35    27    1
    49    36    38    1
