@<TRIPOS>MOLECULE
mol_data/noopt/geoms/mol2/5li5li5li5li-.out
 58 49 0 0 0
SMALL
GASTEIGER

@<TRIPOS>ATOM
      1 C          -2.0792   -1.7080   -0.0002 C.2     1  LIG1        0.0216
      2 C          -0.7020   -1.7080   -0.0002 C.2     1  LIG1        0.1685
      3 C          -0.1766   -0.3757   -0.0002 C.3     2  LIG2        0.0000
      4 C          -1.1831    0.5643    0.0006 C.2     1  LIG1        0.0395
      5 S          -2.6937   -0.1528    0.0006 S.3     1  LIG1       -0.0915
      6 H          -2.8374   -2.7640   -0.0008 H       1  LIG1        0.0731
      7 O           0.0503   -2.7682   -0.0004 O.2     1  LIG1       -0.4909
      8 C          -0.7728   -3.9376   -0.0005 C.3     1  LIG1        0.0790
      9 H          -0.1533   -4.8099   -0.0009 H       1  LIG1        0.0660
     10 H          -1.3905   -3.9391    0.8733 H       1  LIG1        0.0660
     11 H          -1.3908   -3.9387   -0.8740 H       1  LIG1        0.0660
     12 C           1.0972   -0.1142   -0.0009 C.3     2  LIG2       -0.0619
     13 H           1.2712    0.8133    0.5033 H       1  LIG1        0.2109
     14 H           1.4460   -0.0426   -1.0099 H       3  UNK3        0.0000
     15 H           1.6224   -0.8983    0.5033 H       2  LIG2        0.0233
     16 C          -1.0166    1.8536    0.0014 C.2     1  LIG1        0.0430
     17 C           0.1956    2.5069    0.0205 C.3     1  LIG1        0.1706
     18 C           0.0262    3.9290    0.0147 C.3     4  LIG4        0.0000
     19 C          -1.3056    4.2790   -0.0075 C.2     1  LIG1        0.0399
     20 S          -2.2951    2.9311   -0.0215 S.3     1  LIG1       -0.0875
     21 O           1.3607    1.9305    0.0410 O.3     1  LIG1       -0.3768
     22 C           1.1906    0.5107    0.0485 C.3     2  LIG2       -0.0382
     23 H           2.1498    0.0366    0.0652 H       2  LIG2        0.0233
     24 H           0.6352    0.2225    0.9165 H       2  LIG2        0.0303
     25 H           0.6597    0.2104   -0.8306 H       2  LIG2        0.0233
     26 C           1.0233    4.7634    0.0291 C.3     4  LIG4       -0.0653
     27 H           0.7319    5.6588    0.5375 H       4  LIG4        0.0263
     28 H           1.3054    4.9995   -0.9757 H       5  UNK5        0.0000
     29 H           1.8532    4.3187    0.5374 H       4  LIG4        0.0230
     30 C          -1.7706    5.4930   -0.0170 C.2     1  LIG1        0.0466
     31 C          -1.0132    6.6432   -0.0232 C.3     1  LIG1        0.2155
     32 C          -1.8369    7.8147   -0.0340 C.2     1  LIG1        0.0076
     33 C          -3.1756    7.4910   -0.0345 C.2     1  LIG1        0.0381
     34 S          -3.4074    5.8350   -0.0232 S.3     1  LIG1       -0.0876
     35 O           0.2861    6.6885   -0.0202 O.3     1  LIG1       -0.2146
     36 C           0.8100    5.3579   -0.0191 C.3     4  LIG4       -0.0562
     37 H           1.8793    5.3956   -0.0167 H       4  LIG4        0.0230
     38 H           0.4694    4.8411    0.8538 H       4  LIG4        0.0230
     39 H           0.4733    4.8413   -0.8935 H       4  LIG4        0.0263
     40 C          -1.3548    9.0223   -0.0421 C.3     6  LIG6       -0.0776
     41 H          -2.0327    9.6804    0.4601 H       1  LIG1        0.2922
     42 H          -1.2249    9.3477   -1.0531 H       7  UNK7        0.0000
     43 H          -0.4100    9.0324    0.4601 H       5  UNK5        0.0194
     44 C          -4.1608    8.3391   -0.0426 C.ar    1  LIG1        0.0681
     45 C          -4.0397    9.7110   -0.0479 C.ar    1  LIG1        0.1350
     46 C          -5.3206   10.3514   -0.0572 C.ar    1  LIG1       -0.0014
     47 C          -6.3455    9.4315   -0.0576 C.ar    1  LIG1       -0.0172
     48 S          -5.7640    7.8637   -0.0478 S.2     1  LIG1       -0.0921
     49 H          -7.6151    9.7107   -0.0644 H       1  LIG1        0.0697
     50 O          -2.9174   10.3672   -0.0453 O.3     1  LIG1       -0.5053
     51 C          -1.8250    9.4444   -0.0444 C.3     8  LIG8        0.0000
     52 H          -0.9015    9.9849   -0.0425 H       5  UNK5        0.0194
     53 H          -1.8794    8.8281    0.8286 H       5  UNK5        0.0194
     54 H          -1.8766    8.8297   -0.9187 H       5  UNK5        0.0194
     55 C          -5.4690   11.6432   -0.0642 C.3     1  LIG1       -0.0357
     56 H          -6.3780   11.9006    0.4382 H       1  LIG1        0.0279
     57 H          -5.5092   11.9922   -1.0750 H       1  LIG1        0.0279
     58 H          -4.6421   12.1000    0.4382 H       1  LIG1        0.0279
@<TRIPOS>BOND
     1    57    55    1
     2    54    40    1
     3    39    36    1
     4    11     8    1
     5    25    12    1
     6    49    47    1
     7    55    46    1
     8    55    58    1
     9    55    56    1
    10    47    46   ar
    11    47    48   ar
    12    46    45   ar
    13    45    50    1
    14    45    44   ar
    15    48    44   ar
    16    50    41    1
    17    44    33    1
    18    52    40    1
    19    40    43    1
    20    40    53    1
    21    33    32    2
    22    33    34    1
    23    31    35    1
    24    31    30    1
    25    34    30    1
    26    20    19    1
    27    20    16    1
    28    36    26    1
    29    36    27    1
    30    30    19    2
    31    37    26    1
    32    12    22    1
    33    12    23    1
    34    12    15    1
    35     9     8    1
    36     6     1    1
    37     8     7    1
    38     8    10    1
    39     7     2    1
    40     1     2    2
    41     1     5    1
    42     4     5    1
    43     4    16    2
    44    16    17    1
    45    17    21    1
    46    26    29    1
    47    26    38    1
    48    21    13    1
    49    22    24    1
