@<TRIPOS>MOLECULE
mol_data/noopt/geoms/mol2/5li5li.out
 30 27 0 0 0
SMALL
GASTEIGER

@<TRIPOS>ATOM
      1 C          -2.0792   -1.7080   -0.0002 C.2     1  LIG1        0.0177
      2 C          -0.7020   -1.7080   -0.0002 C.2     1  LIG1        0.1682
      3 C          -0.1766   -0.3757   -0.0002 C.3     2  LIG2        0.0000
      4 C          -1.1831    0.5643    0.0006 C.3     1  LIG1        0.0974
      5 S          -2.6937   -0.1528    0.0006 S.3     1  LIG1       -0.1135
      6 H          -2.8374   -2.7640   -0.0008 H       1  LIG1        0.0728
      7 O           0.0503   -2.7682   -0.0004 O.2     1  LIG1       -0.4909
      8 C          -0.7728   -3.9376   -0.0005 C.3     1  LIG1        0.0790
      9 H          -0.1533   -4.8099   -0.0009 H       1  LIG1        0.0660
     10 H          -1.3905   -3.9391    0.8733 H       1  LIG1        0.0660
     11 H          -1.3908   -3.9387   -0.8740 H       1  LIG1        0.0660
     12 C           1.0972   -0.1142   -0.0009 C.3     2  LIG2       -0.0619
     13 H           1.2712    0.8133    0.5033 H       1  LIG1        0.2922
     14 H           1.4460   -0.0426   -1.0099 H       3  UNK3        0.0000
     15 H           1.6224   -0.8983    0.5033 H       2  LIG2        0.0233
     16 C          -1.0166    1.8536    0.0014 C.ar    1  LIG1        0.0511
     17 C           0.1956    2.5069    0.0205 C.ar    1  LIG1        0.1314
     18 C           0.0262    3.9290    0.0147 C.ar    1  LIG1       -0.0017
     19 C          -1.3056    4.2790   -0.0075 C.ar    1  LIG1       -0.0175
     20 S          -2.2951    2.9311   -0.0215 S.2     1  LIG1       -0.0961
     21 H          -1.7706    5.4930   -0.0170 H       1  LIG1        0.0697
     22 O           1.3607    1.9305    0.0410 O.3     1  LIG1       -0.5056
     23 C           1.1906    0.5107    0.0485 C.3     2  LIG2       -0.0382
     24 H           2.1498    0.0366    0.0652 H       2  LIG2        0.0233
     25 H           0.6352    0.2225    0.9165 H       2  LIG2        0.0303
     26 H           0.6597    0.2104   -0.8306 H       2  LIG2        0.0233
     27 C           1.0233    4.7634    0.0291 C.3     1  LIG1       -0.0357
     28 H           0.7319    5.6588    0.5375 H       1  LIG1        0.0279
     29 H           1.3054    4.9995   -0.9757 H       1  LIG1        0.0279
     30 H           1.8532    4.3187    0.5374 H       1  LIG1        0.0279
@<TRIPOS>BOND
     1    29    27    1
     2    11     8    1
     3    26    12    1
     4    20    19   ar
     5    20    16   ar
     6    21    19    1
     7    19    18   ar
     8    12    23    1
     9    12    24    1
    10    12    15    1
    11     9     8    1
    12     6     1    1
    13     8     7    1
    14     8    10    1
    15     7     2    1
    16     1     2    2
    17     1     5    1
    18     5     4    1
    19     4    16    1
    20    16    17   ar
    21    18    17   ar
    22    18    27    1
    23    17    22    1
    24    27    30    1
    25    27    28    1
    26    22    13    1
    27    23    25    1
