@<TRIPOS>MOLECULE
mol_data/noopt/geoms/mol2/5ll5ll-5ll.out
 47 43 0 0 0
SMALL
GASTEIGER

@<TRIPOS>ATOM
      1 C          -2.0792   -1.7080   -0.0002 C.2     1  LIG1        0.0213
      2 C          -0.7020   -1.7080   -0.0002 C.2     1  LIG1        0.1685
      3 C          -0.1766   -0.3757   -0.0002 C.3     1  LIG1        0.0384
      4 C          -1.1831    0.5643    0.0006 C.2     1  LIG1        0.0115
      5 S          -2.6937   -0.1528    0.0006 S.3     1  LIG1       -0.0963
      6 H          -2.8374   -2.7640   -0.0008 H       1  LIG1        0.0731
      7 O           0.0503   -2.7682   -0.0004 O.2     1  LIG1       -0.4909
      8 C          -0.7728   -3.9376   -0.0005 C.3     1  LIG1        0.0790
      9 H          -0.1533   -4.8099   -0.0009 H       1  LIG1        0.0660
     10 H          -1.3905   -3.9391    0.8733 H       1  LIG1        0.0660
     11 H          -1.3908   -3.9387   -0.8740 H       1  LIG1        0.0660
     12 O           1.0969   -0.1143   -0.0009 O.3     2  HOH2       -0.4105
     13 C           1.8355   -1.3388   -0.0012 C.3     3  LIG3       -0.0681
     14 H           2.8835   -1.1232   -0.0020 H       1  LIG1        0.0227
     15 H           1.5884   -1.9046    0.8727 H       1  LIG1        0.0227
     16 H           1.5872   -1.9049   -0.8746 H       1  LIG1        0.0227
     17 C          -1.0166    1.8536    0.0014 C.2     1  LIG1        0.0388
     18 C           0.1958    2.5069    0.0015 C.3     1  LIG1        0.1747
     19 C           0.0263    3.9290    0.0017 C.2     1  LIG1        0.0076
     20 C          -1.3057    4.2790    0.0026 C.2     1  LIG1        0.0383
     21 S          -2.2953    2.9311    0.0023 S.3     1  LIG1       -0.0880
     22 O           1.3610    1.9305    0.0013 O.3     1  LIG1       -0.3529
     23 C           1.1911    0.5106    0.0011 C.3     1  LIG1        0.1173
     24 H           2.1504    0.0366    0.0007 H       1  LIG1        0.0650
     25 H           0.6482    0.2162    0.8749 H       0  HOH0        0.2052
     26 H           0.6476    0.2165   -0.8724 H       0  HOH0        0.2052
     27 O           1.0233    4.7633    0.0012 O.3     4  HOH4       -0.4105
     28 C           2.2544    4.0357    0.0009 C.3     5  LIG5       -0.0681
     29 H           3.0747    4.7226    0.0003 H       2  HOH2        0.0227
     30 H           2.3052    3.4203    0.8748 H       2  HOH2        0.0227
     31 H           2.3044    3.4196   -0.8725 H       2  HOH2        0.0227
     32 C          -1.7708    5.4930    0.0035 C.ar    1  LIG1        0.0719
     33 C          -1.0134    6.6433    0.0038 C.ar    1  LIG1        0.1779
     34 C          -1.8373    7.8147    0.0042 C.ar    1  LIG1        0.1692
     35 C          -3.1759    7.4910    0.0050 C.ar    1  LIG1        0.0218
     36 S          -3.4076    5.8350    0.0046 S.2     1  LIG1       -0.0886
     37 H          -4.1612    8.3391    0.0062 H       1  LIG1        0.0731
     38 O           0.2858    6.6886    0.0035 O.3     1  LIG1       -0.4763
     39 C           0.8098    5.3581    0.0033 C.3     1  LIG1        0.1807
     40 H           1.8792    5.3958    0.0028 H       1  LIG1        0.0811
     41 H           0.4715    4.8414    0.8771 H       0  HOH0        0.2052
     42 H           0.4708    4.8413   -0.8702 H       0  HOH0        0.2052
     43 O          -1.3553    9.0221    0.0038 O.3     1  LIG1       -0.4909
     44 C           0.0736    8.9657    0.0035 C.3     1  LIG1        0.0790
     45 H           0.4699    9.9596    0.0030 H       1  LIG1        0.0660
     46 H           0.4102    8.4479    0.8774 H       1  LIG1        0.0660
     47 H           0.4099    8.4472   -0.8699 H       1  LIG1        0.0660
@<TRIPOS>BOND
     1    16    13    1
     2    11     8    1
     3    31    28    1
     4    26    12    1
     5    42    27    1
     6    47    44    1
     7    14    13    1
     8    13    15    1
     9    12    25    1
    10     9     8    1
    11     6     1    1
    12     8     7    1
    13     8    10    1
    14     7     2    1
    15     1     2    2
    16     1     5    1
    17     3     4    1
    18    29    28    1
    19     4     5    1
    20     4    17    2
    21    24    23    1
    22    28    30    1
    23    23    22    1
    24    27    41    1
    25    22    18    1
    26    17    18    1
    27    17    21    1
    28    19    20    2
    29    21    20    1
    30    20    32    1
    31    40    39    1
    32    45    44    1
    33    39    38    1
    34    38    33    1
    35    44    43    1
    36    44    46    1
    37    32    33   ar
    38    32    36   ar
    39    43    34    1
    40    33    34   ar
    41    34    35   ar
    42    36    35   ar
    43    35    37    1
