@<TRIPOS>MOLECULE
mol_data/noopt/geoms/mol2/5ll5ll5ll5ll.out
 62 53 0 0 0
SMALL
GASTEIGER

@<TRIPOS>ATOM
      1 C          -2.0792   -1.7080   -0.0002 C.2     1  LIG1        0.0216
      2 C          -0.7020   -1.7080   -0.0002 C.2     1  LIG1        0.1685
      3 C          -0.1766   -0.3757   -0.0002 C.3     2  LIG2        0.0000
      4 C          -1.1831    0.5643    0.0006 C.2     1  LIG1        0.0396
      5 S          -2.6937   -0.1528    0.0006 S.3     1  LIG1       -0.0915
      6 H          -2.8374   -2.7640   -0.0008 H       1  LIG1        0.0731
      7 O           0.0503   -2.7682   -0.0004 O.2     1  LIG1       -0.4909
      8 C          -0.7728   -3.9376   -0.0005 C.3     1  LIG1        0.0790
      9 H          -0.1533   -4.8099   -0.0009 H       1  LIG1        0.0660
     10 H          -1.3905   -3.9391    0.8733 H       1  LIG1        0.0660
     11 H          -1.3908   -3.9387   -0.8740 H       1  LIG1        0.0660
     12 O           1.0969   -0.1143   -0.0009 O.3     2  LIG2       -0.3928
     13 C           1.8355   -1.3388   -0.0012 C.3     3  LIG3       -0.0681
     14 H           2.8835   -1.1232   -0.0020 H       3  LIG3        0.0227
     15 H           1.5884   -1.9046    0.8727 H       3  LIG3        0.0227
     16 H           1.5872   -1.9049   -0.8746 H       3  LIG3        0.0227
     17 C          -1.0166    1.8536    0.0014 C.2     1  LIG1        0.0466
     18 C           0.1956    2.5069    0.0205 C.3     1  LIG1        0.2155
     19 C           0.0262    3.9290    0.0147 C.3     4  LIG4        0.0000
     20 C          -1.3056    4.2790   -0.0075 C.2     1  LIG1        0.0396
     21 S          -2.2951    2.9311   -0.0215 S.3     1  LIG1       -0.0874
     22 O           1.3607    1.9305    0.0410 O.3     1  LIG1       -0.2146
     23 C           1.1906    0.5107    0.0485 C.3     2  LIG2        0.0673
     24 H           2.1498    0.0366    0.0652 H       2  LIG2        0.0580
     25 H           0.6352    0.2225    0.9165 H       2  LIG2        0.0580
     26 H           0.6597    0.2104   -0.8306 H       2  LIG2        0.2095
     27 O           1.0231    4.7633    0.0291 O.3     5  LIG5       -0.3928
     28 C           2.2542    4.0357    0.0343 C.3     5  LIG5       -0.0681
     29 H           3.0745    4.7227    0.0460 H       6  LIG6        0.0227
     30 H           2.2974    3.4139    0.9041 H       6  LIG6        0.0227
     31 H           2.3120    3.4261   -0.8431 H       6  LIG6        0.0227
     32 C          -1.7706    5.4930   -0.0170 C.2     1  LIG1        0.0427
     33 C          -1.0132    6.6432   -0.0232 C.3     1  LIG1        0.2152
     34 C          -1.8369    7.8147   -0.0340 C.3     6  LIG6        0.0000
     35 C          -3.1756    7.4910   -0.0345 C.3     1  LIG1        0.0980
     36 S          -3.4074    5.8350   -0.0232 S.3     1  LIG1       -0.1095
     37 O           0.2861    6.6885   -0.0202 O.3     1  LIG1       -0.2146
     38 C           0.8100    5.3579   -0.0191 C.3     5  LIG5        0.0673
     39 H           1.8793    5.3956   -0.0167 H       5  LIG5        0.0580
     40 H           0.4694    4.8411    0.8538 H       5  LIG5        0.2095
     41 H           0.4733    4.8413   -0.8935 H       5  LIG5        0.0580
     42 O          -1.3549    9.0220   -0.0421 O.3     8  LIG8       -0.3928
     43 C           0.0740    8.9654   -0.0451 C.3     7  LIG7       -0.0681
     44 H           0.4703    9.9593   -0.0519 H       9  LIG9        0.0227
     45 H           0.4125    8.4525    0.8309 H       9  LIG9        0.0227
     46 H           0.4084    8.4421   -0.9164 H       9  LIG9        0.0227
     47 C          -4.1608    8.3391   -0.0426 C.ar    1  LIG1        0.0599
     48 C          -4.0399    9.7109   -0.0290 C.ar    1  LIG1        0.2318
     49 C          -5.3207   10.3514   -0.0442 C.ar    1  LIG1        0.1739
     50 C          -6.3454    9.4315   -0.0677 C.ar    1  LIG1        0.0216
     51 S          -5.7637    7.8638   -0.0716 S.2     1  LIG1       -0.0924
     52 H          -7.6149    9.7107   -0.0849 H       1  LIG1        0.0731
     53 O          -2.9178   10.3671   -0.0056 O.3     1  LIG1       -0.2831
     54 C          -1.8254    9.4443    0.0029 C.3     8  LIG8        0.0673
     55 H          -0.9021    9.9848    0.0220 H       8  LIG8        0.0580
     56 H          -1.8918    8.8210    0.8701 H       8  LIG8        0.0580
     57 H          -1.8649    8.8367   -0.8769 H       8  LIG8        0.2095
     58 O          -5.4693   11.6429   -0.0363 O.3     1  LIG1       -0.4907
     59 C          -4.1846   12.2711   -0.0335 C.3     1  LIG1        0.0790
     60 H          -4.3073   13.3340   -0.0272 H       1  LIG1        0.0660
     61 H          -3.6420   11.9696    0.8381 H       1  LIG1        0.0660
     62 H          -3.6432   11.9798   -0.9092 H       1  LIG1        0.0660
@<TRIPOS>BOND
     1    46    43    1
     2    62    59    1
     3    41    38    1
     4    57    42    1
     5    16    13    1
     6    11     8    1
     7    31    28    1
     8    26    12    1
     9    52    50    1
    10    51    50   ar
    11    51    47   ar
    12    50    49   ar
    13    44    43    1
    14    43    45    1
    15    49    58    1
    16    49    48   ar
    17    47    35    1
    18    47    48   ar
    19    42    54    1
    20    58    59    1
    21    35    36    1
    22    59    60    1
    23    59    61    1
    24    48    53    1
    25    33    37    1
    26    33    32    1
    27    36    32    1
    28    21    20    1
    29    21    17    1
    30    38    39    1
    31    38    27    1
    32    32    20    2
    33    14    13    1
    34    13    15    1
    35    12    23    1
    36     9     8    1
    37     6     1    1
    38     8     7    1
    39     8    10    1
    40     7     2    1
    41     2     1    2
    42     1     5    1
    43     4     5    1
    44     4    17    2
    45    17    18    1
    46    54    55    1
    47    54    56    1
    48    18    22    1
    49    27    40    1
    50    28    29    1
    51    28    30    1
    52    23    24    1
    53    23    25    1
