@<TRIPOS>MOLECULE
mol_data/noopt/geoms/mol2/5ll5ll5ll5ll-.out
 62 54 0 0 0
SMALL
GASTEIGER

@<TRIPOS>ATOM
      1 C          -2.0792   -1.7080   -0.0002 C.2     1  LIG1        0.0216
      2 C          -0.7020   -1.7080   -0.0002 C.2     1  LIG1        0.1685
      3 C          -0.1766   -0.3757   -0.0002 C.3     2  LIG2        0.0000
      4 C          -1.1831    0.5643    0.0006 C.2     1  LIG1        0.0396
      5 S          -2.6937   -0.1528    0.0006 S.3     1  LIG1       -0.0915
      6 H          -2.8374   -2.7640   -0.0008 H       1  LIG1        0.0731
      7 O           0.0503   -2.7682   -0.0004 O.2     1  LIG1       -0.4909
      8 C          -0.7728   -3.9376   -0.0005 C.3     1  LIG1        0.0790
      9 H          -0.1533   -4.8099   -0.0009 H       1  LIG1        0.0660
     10 H          -1.3905   -3.9391    0.8733 H       1  LIG1        0.0660
     11 H          -1.3908   -3.9387   -0.8740 H       1  LIG1        0.0660
     12 O           1.0969   -0.1143   -0.0009 O.3     2  LIG2       -0.3928
     13 C           1.8355   -1.3388   -0.0012 C.3     3  LIG3       -0.0681
     14 H           2.8835   -1.1232   -0.0020 H       3  LIG3        0.0227
     15 H           1.5884   -1.9046    0.8727 H       3  LIG3        0.0227
     16 H           1.5872   -1.9049   -0.8746 H       3  LIG3        0.0227
     17 C          -1.0166    1.8536    0.0014 C.2     1  LIG1        0.0466
     18 C           0.1956    2.5069    0.0205 C.3     1  LIG1        0.2155
     19 C           0.0262    3.9290    0.0147 C.3     4  LIG4        0.0000
     20 C          -1.3056    4.2790   -0.0075 C.2     1  LIG1        0.0399
     21 S          -2.2951    2.9311   -0.0215 S.3     1  LIG1       -0.0874
     22 O           1.3607    1.9305    0.0410 O.3     1  LIG1       -0.2146
     23 C           1.1906    0.5107    0.0485 C.3     2  LIG2        0.0673
     24 H           2.1498    0.0366    0.0652 H       2  LIG2        0.0580
     25 H           0.6352    0.2225    0.9165 H       2  LIG2        0.0580
     26 H           0.6597    0.2104   -0.8306 H       2  LIG2        0.2095
     27 O           1.0231    4.7633    0.0291 O.3     5  LIG5       -0.3928
     28 C           2.2542    4.0357    0.0343 C.3     5  LIG5       -0.0681
     29 H           3.0745    4.7227    0.0460 H       6  LIG6        0.0227
     30 H           2.2974    3.4139    0.9041 H       6  LIG6        0.0227
     31 H           2.3120    3.4261   -0.8431 H       6  LIG6        0.0227
     32 C          -1.7706    5.4930   -0.0170 C.2     1  LIG1        0.0466
     33 C          -1.0132    6.6432   -0.0232 C.3     1  LIG1        0.2155
     34 C          -1.8369    7.8147   -0.0340 C.2     1  LIG1        0.0076
     35 C          -3.1756    7.4910   -0.0345 C.2     1  LIG1        0.0383
     36 S          -3.4074    5.8350   -0.0232 S.3     1  LIG1       -0.0876
     37 O           0.2861    6.6885   -0.0202 O.3     1  LIG1       -0.2146
     38 C           0.8100    5.3579   -0.0191 C.3     5  LIG5        0.0673
     39 H           1.8793    5.3956   -0.0167 H       5  LIG5        0.0580
     40 H           0.4694    4.8411    0.8538 H       5  LIG5        0.2095
     41 H           0.4733    4.8413   -0.8935 H       5  LIG5        0.0580
     42 O          -1.3549    9.0220   -0.0421 O.3     6  LIG6       -0.4105
     43 C           0.0740    8.9654   -0.0451 C.3     7  LIG7       -0.0681
     44 H           0.4703    9.9593   -0.0519 H       7  LIG7        0.0227
     45 H           0.4125    8.4525    0.8309 H       7  LIG7        0.0227
     46 H           0.4084    8.4421   -0.9164 H       7  LIG7        0.0227
     47 C          -4.1608    8.3391   -0.0426 C.ar    1  LIG1        0.0719
     48 C          -4.0397    9.7110   -0.0479 C.ar    1  LIG1        0.1779
     49 C          -5.3206   10.3514   -0.0572 C.ar    1  LIG1        0.1692
     50 C          -6.3455    9.4315   -0.0576 C.ar    1  LIG1        0.0218
     51 S          -5.7640    7.8637   -0.0478 S.2     1  LIG1       -0.0886
     52 H          -7.6151    9.7107   -0.0644 H       1  LIG1        0.0731
     53 O          -2.9174   10.3672   -0.0453 O.3     1  LIG1       -0.4763
     54 C          -1.8250    9.4444   -0.0444 C.3     1  LIG1        0.1807
     55 H          -0.9015    9.9849   -0.0425 H       1  LIG1        0.0811
     56 H          -1.8794    8.8281    0.8286 H       0  HOH0        0.2052
     57 H          -1.8766    8.8297   -0.9187 H       0  HOH0        0.2052
     58 O          -5.4690   11.6430   -0.0642 O.3     1  LIG1       -0.4909
     59 C          -4.1843   12.2710   -0.0669 C.3     1  LIG1        0.0790
     60 H          -4.3069   13.3339   -0.0729 H       1  LIG1        0.0660
     61 H          -3.6429   11.9794    0.8088 H       1  LIG1        0.0660
     62 H          -3.6418   11.9697   -0.9385 H       1  LIG1        0.0660
@<TRIPOS>BOND
     1    62    59    1
     2    57    42    1
     3    46    43    1
     4    41    38    1
     5    16    13    1
     6    11     8    1
     7    31    28    1
     8    26    12    1
     9    60    59    1
    10    59    58    1
    11    59    61    1
    12    52    50    1
    13    58    49    1
    14    50    49   ar
    15    50    51   ar
    16    49    48   ar
    17    44    43    1
    18    48    53    1
    19    48    47   ar
    20    51    47   ar
    21    53    54    1
    22    43    45    1
    23    54    55    1
    24    47    35    1
    25    42    56    1
    26    35    34    2
    27    35    36    1
    28    33    37    1
    29    33    32    1
    30    36    32    1
    31    21    20    1
    32    21    17    1
    33    38    39    1
    34    38    27    1
    35    32    20    2
    36    14    13    1
    37    13    15    1
    38    12    23    1
    39     9     8    1
    40     6     1    1
    41     8     7    1
    42     8    10    1
    43     7     2    1
    44     1     2    2
    45     1     5    1
    46     4     5    1
    47     4    17    2
    48    17    18    1
    49    18    22    1
    50    27    40    1
    51    28    29    1
    52    28    30    1
    53    23    24    1
    54    23    25    1
