@<TRIPOS>MOLECULE
mol_data/noopt/geoms/mol2/5ll5ll5ll-.out
 47 42 0 0 0
SMALL
GASTEIGER

@<TRIPOS>ATOM
      1 C          -2.0792   -1.7080   -0.0002 C.2     1  LIG1        0.0216
      2 C          -0.7020   -1.7080   -0.0002 C.2     1  LIG1        0.1685
      3 C          -0.1766   -0.3757   -0.0002 C.3     2  LIG2        0.0000
      4 C          -1.1831    0.5643    0.0006 C.2     1  LIG1        0.0396
      5 S          -2.6937   -0.1528    0.0006 S.3     1  LIG1       -0.0915
      6 H          -2.8374   -2.7640   -0.0008 H       1  LIG1        0.0731
      7 O           0.0503   -2.7682   -0.0004 O.2     1  LIG1       -0.4909
      8 C          -0.7728   -3.9376   -0.0005 C.3     1  LIG1        0.0790
      9 H          -0.1533   -4.8099   -0.0009 H       1  LIG1        0.0660
     10 H          -1.3905   -3.9391    0.8733 H       1  LIG1        0.0660
     11 H          -1.3908   -3.9387   -0.8740 H       1  LIG1        0.0660
     12 O           1.0969   -0.1143   -0.0009 O.3     2  LIG2       -0.3928
     13 C           1.8355   -1.3388   -0.0012 C.3     3  LIG3       -0.0681
     14 H           2.8835   -1.1232   -0.0020 H       3  LIG3        0.0227
     15 H           1.5884   -1.9046    0.8727 H       3  LIG3        0.0227
     16 H           1.5872   -1.9049   -0.8746 H       3  LIG3        0.0227
     17 C          -1.0166    1.8536    0.0014 C.2     1  LIG1        0.0466
     18 C           0.1956    2.5069    0.0205 C.3     1  LIG1        0.2155
     19 C           0.0262    3.9290    0.0147 C.2     1  LIG1        0.0076
     20 C          -1.3056    4.2790   -0.0075 C.2     1  LIG1        0.0383
     21 S          -2.2951    2.9311   -0.0215 S.3     1  LIG1       -0.0876
     22 O           1.3607    1.9305    0.0410 O.3     1  LIG1       -0.2146
     23 C           1.1906    0.5107    0.0485 C.3     2  LIG2        0.0673
     24 H           2.1498    0.0366    0.0652 H       2  LIG2        0.0580
     25 H           0.6352    0.2225    0.9165 H       2  LIG2        0.0580
     26 H           0.6597    0.2104   -0.8306 H       2  LIG2        0.2095
     27 O           1.0231    4.7633    0.0291 O.3     4  HOH4       -0.4105
     28 C           2.2542    4.0357    0.0343 C.3     5  LIG5       -0.0681
     29 H           3.0745    4.7227    0.0460 H       4  HOH4        0.0227
     30 H           2.2974    3.4139    0.9041 H       4  HOH4        0.0227
     31 H           2.3120    3.4261   -0.8431 H       4  HOH4        0.0227
     32 C          -1.7706    5.4930   -0.0170 C.ar    1  LIG1        0.0719
     33 C          -1.0134    6.6433   -0.0043 C.ar    1  LIG1        0.1779
     34 C          -1.8371    7.8147   -0.0210 C.ar    1  LIG1        0.1692
     35 C          -3.1754    7.4910   -0.0446 C.ar    1  LIG1        0.0218
     36 S          -3.4072    5.8350   -0.0470 S.2     1  LIG1       -0.0886
     37 H          -4.1606    8.3390   -0.0631 H       1  LIG1        0.0731
     38 O           0.2857    6.6886    0.0196 O.3     1  LIG1       -0.4763
     39 C           0.8096    5.3581    0.0283 C.3     1  LIG1        0.1807
     40 H           1.8788    5.3958    0.0478 H       1  LIG1        0.0811
     41 H           0.4551    4.8408    0.8953 H       0  HOH0        0.2052
     42 H           0.4869    4.8419   -0.8517 H       0  HOH0        0.2052
     43 O          -1.3551    9.0221   -0.0141 O.3     1  LIG1       -0.4909
     44 C           0.0737    8.9657   -0.0117 C.3     1  LIG1        0.0790
     45 H           0.4700    9.9596   -0.0062 H       1  LIG1        0.0660
     46 H           0.4086    8.4435    0.8602 H       1  LIG1        0.0660
     47 H           0.4119    8.4518   -0.8871 H       1  LIG1        0.0660
@<TRIPOS>BOND
     1    47    44    1
     2    16    13    1
     3    11     8    1
     4    42    27    1
     5    31    28    1
     6    26    12    1
     7    37    35    1
     8    36    35   ar
     9    36    32   ar
    10    35    34   ar
    11    21    20    1
    12    21    17    1
    13    34    43    1
    14    34    33   ar
    15    32    20    1
    16    32    33   ar
    17    43    44    1
    18    44    45    1
    19    44    46    1
    20    20    19    2
    21    33    38    1
    22    14    13    1
    23    13    15    1
    24    12    23    1
    25     9     8    1
    26     6     1    1
    27     8     7    1
    28     8    10    1
    29     7     2    1
    30     1     2    2
    31     1     5    1
    32     5     4    1
    33     4    17    2
    34    17    18    1
    35    38    39    1
    36    18    22    1
    37    39    40    1
    38    27    41    1
    39    28    29    1
    40    28    30    1
    41    23    24    1
    42    23    25    1
