@<TRIPOS>MOLECULE
mol_data/noopt/geoms/mol2/5ll5ll5ll-5ll.out
 62 55 0 0 0
SMALL
GASTEIGER

@<TRIPOS>ATOM
      1 C          -2.0792   -1.7080   -0.0002 C.2     1  LIG1        0.0216
      2 C          -0.7020   -1.7080   -0.0002 C.2     1  LIG1        0.1685
      3 C          -0.1766   -0.3757   -0.0002 C.3     2  LIG2        0.0000
      4 C          -1.1831    0.5643    0.0006 C.2     1  LIG1        0.0396
      5 S          -2.6937   -0.1528    0.0006 S.3     1  LIG1       -0.0915
      6 H          -2.8374   -2.7640   -0.0008 H       1  LIG1        0.0731
      7 O           0.0503   -2.7682   -0.0004 O.2     1  LIG1       -0.4909
      8 C          -0.7728   -3.9376   -0.0005 C.3     1  LIG1        0.0790
      9 H          -0.1533   -4.8099   -0.0009 H       1  LIG1        0.0660
     10 H          -1.3905   -3.9391    0.8733 H       1  LIG1        0.0660
     11 H          -1.3908   -3.9387   -0.8740 H       1  LIG1        0.0660
     12 O           1.0969   -0.1143   -0.0009 O.3     2  LIG2       -0.3928
     13 C           1.8355   -1.3388   -0.0012 C.3     3  LIG3       -0.0681
     14 H           2.8835   -1.1232   -0.0020 H       3  LIG3        0.0227
     15 H           1.5884   -1.9046    0.8727 H       3  LIG3        0.0227
     16 H           1.5872   -1.9049   -0.8746 H       3  LIG3        0.0227
     17 C          -1.0166    1.8536    0.0014 C.2     1  LIG1        0.0463
     18 C           0.1956    2.5069    0.0205 C.3     1  LIG1        0.2155
     19 C           0.0262    3.9290    0.0147 C.3     1  LIG1        0.0384
     20 C          -1.3056    4.2790   -0.0075 C.2     1  LIG1        0.0117
     21 S          -2.2951    2.9311   -0.0215 S.3     1  LIG1       -0.0923
     22 O           1.3607    1.9305    0.0410 O.3     1  LIG1       -0.2146
     23 C           1.1906    0.5107    0.0485 C.3     2  LIG2        0.0673
     24 H           2.1498    0.0366    0.0652 H       2  LIG2        0.0580
     25 H           0.6352    0.2225    0.9165 H       2  LIG2        0.0580
     26 H           0.6597    0.2104   -0.8306 H       2  LIG2        0.2095
     27 O           1.0231    4.7633    0.0291 O.3     4  HOH4       -0.4105
     28 C           2.2542    4.0357    0.0343 C.3     5  LIG5       -0.0681
     29 H           3.0745    4.7227    0.0460 H       4  HOH4        0.0227
     30 H           2.2974    3.4139    0.9041 H       4  HOH4        0.0227
     31 H           2.3120    3.4261   -0.8431 H       4  HOH4        0.0227
     32 C          -1.7706    5.4930   -0.0170 C.2     1  LIG1        0.0388
     33 C          -1.0134    6.6433   -0.0043 C.3     1  LIG1        0.1747
     34 C          -1.8371    7.8147   -0.0210 C.2     1  LIG1        0.0076
     35 C          -3.1754    7.4910   -0.0446 C.2     1  LIG1        0.0383
     36 S          -3.4072    5.8350   -0.0470 S.3     1  LIG1       -0.0880
     37 O           0.2857    6.6886    0.0196 O.3     1  LIG1       -0.3529
     38 C           0.8096    5.3581    0.0283 C.3     1  LIG1        0.1173
     39 H           1.8788    5.3958    0.0478 H       1  LIG1        0.0650
     40 H           0.4551    4.8408    0.8953 H       0  HOH0        0.2052
     41 H           0.4869    4.8419   -0.8517 H       0  HOH0        0.2052
     42 O          -1.3551    9.0221   -0.0141 O.3     6  HOH6       -0.4105
     43 C           0.0737    8.9657   -0.0117 C.3     7  LIG7       -0.0681
     44 H           0.4700    9.9596   -0.0062 H       5  LIG5        0.0227
     45 H           0.4086    8.4435    0.8602 H       5  LIG5        0.0227
     46 H           0.4119    8.4518   -0.8871 H       5  LIG5        0.0227
     47 C          -4.1606    8.3390   -0.0631 C.ar    1  LIG1        0.0719
     48 C          -4.0397    9.7109   -0.0560 C.ar    1  LIG1        0.1779
     49 C          -5.3204   10.3513   -0.0823 C.ar    1  LIG1        0.1692
     50 C          -6.3449    9.4313   -0.1072 C.ar    1  LIG1        0.0218
     51 S          -5.7633    7.8636   -0.0994 S.2     1  LIG1       -0.0886
     52 H          -7.6143    9.7105   -0.1337 H       1  LIG1        0.0731
     53 O          -2.9178   10.3672   -0.0292 O.3     1  LIG1       -0.4763
     54 C          -1.8253    9.4445   -0.0194 C.3     1  LIG1        0.1807
     55 H          -0.9021    9.9850    0.0025 H       1  LIG1        0.0811
     56 H          -1.8935    8.8200    0.8468 H       0  HOH0        0.2052
     57 H          -1.8627    8.8381   -0.9001 H       0  HOH0        0.2052
     58 O          -5.4689   11.6429   -0.0821 O.3     1  LIG1       -0.4909
     59 C          -4.1843   12.2710   -0.0821 C.3     1  LIG1        0.0790
     60 H          -4.3070   13.3340   -0.0821 H       1  LIG1        0.0660
     61 H          -3.6423   11.9746    0.7916 H       1  LIG1        0.0660
     62 H          -3.6423   11.9746   -0.9557 H       1  LIG1        0.0660
@<TRIPOS>BOND
     1    62    59    1
     2    57    42    1
     3    46    43    1
     4    16    13    1
     5    11     8    1
     6    41    27    1
     7    31    28    1
     8    26    12    1
     9    52    50    1
    10    50    51   ar
    11    50    49   ar
    12    51    47   ar
    13    49    58    1
    14    49    48   ar
    15    60    59    1
    16    59    58    1
    17    59    61    1
    18    47    48   ar
    19    47    35    1
    20    48    53    1
    21    36    35    1
    22    36    32    1
    23    35    34    2
    24    53    54    1
    25    21    20    1
    26    21    17    1
    27    54    55    1
    28    32    20    2
    29    32    33    1
    30    42    56    1
    31    43    44    1
    32    43    45    1
    33    20    19    1
    34    33    37    1
    35    14    13    1
    36    13    15    1
    37    12    23    1
    38     9     8    1
    39     6     1    1
    40     8     7    1
    41     8    10    1
    42     7     2    1
    43     2     1    2
    44     1     5    1
    45     4     5    1
    46     4    17    2
    47    17    18    1
    48    37    38    1
    49    18    22    1
    50    38    39    1
    51    27    40    1
    52    28    29    1
    53    28    30    1
    54    23    24    1
    55    23    25    1
