@<TRIPOS>MOLECULE
mol_data/noopt/geoms/mol2/5ll5ll5ll.out
 47 41 0 0 0
SMALL
GASTEIGER

@<TRIPOS>ATOM
      1 C          -2.0792   -1.7080   -0.0002 C.2     1  LIG1        0.0216
      2 C          -0.7020   -1.7080   -0.0002 C.2     1  LIG1        0.1685
      3 C          -0.1766   -0.3757   -0.0002 C.3     2  LIG2        0.0000
      4 C          -1.1831    0.5643    0.0006 C.2     1  LIG1        0.0393
      5 S          -2.6937   -0.1528    0.0006 S.3     1  LIG1       -0.0915
      6 H          -2.8374   -2.7640   -0.0008 H       1  LIG1        0.0731
      7 O           0.0503   -2.7682   -0.0004 O.2     1  LIG1       -0.4909
      8 C          -0.7728   -3.9376   -0.0005 C.3     1  LIG1        0.0790
      9 H          -0.1533   -4.8099   -0.0009 H       1  LIG1        0.0660
     10 H          -1.3905   -3.9391    0.8733 H       1  LIG1        0.0660
     11 H          -1.3908   -3.9387   -0.8740 H       1  LIG1        0.0660
     12 O           1.0969   -0.1143   -0.0009 O.3     2  LIG2       -0.3928
     13 C           1.8355   -1.3388   -0.0012 C.3     3  LIG3       -0.0681
     14 H           2.8835   -1.1232   -0.0020 H       3  LIG3        0.0227
     15 H           1.5884   -1.9046    0.8727 H       3  LIG3        0.0227
     16 H           1.5872   -1.9049   -0.8746 H       3  LIG3        0.0227
     17 C          -1.0166    1.8536    0.0014 C.2     1  LIG1        0.0427
     18 C           0.1956    2.5069    0.0205 C.3     1  LIG1        0.2152
     19 C           0.0262    3.9290    0.0147 C.3     4  LIG4        0.0000
     20 C          -1.3056    4.2790   -0.0075 C.3     1  LIG1        0.0980
     21 S          -2.2951    2.9311   -0.0215 S.3     1  LIG1       -0.1095
     22 O           1.3607    1.9305    0.0410 O.3     1  LIG1       -0.2146
     23 C           1.1906    0.5107    0.0485 C.3     2  LIG2        0.0673
     24 H           2.1498    0.0366    0.0652 H       2  LIG2        0.0580
     25 H           0.6352    0.2225    0.9165 H       2  LIG2        0.0580
     26 H           0.6597    0.2104   -0.8306 H       2  LIG2        0.2095
     27 O           1.0231    4.7633    0.0291 O.3     5  LIG5       -0.3928
     28 C           2.2542    4.0357    0.0343 C.3     5  LIG5       -0.0681
     29 H           3.0745    4.7227    0.0460 H       6  LIG6        0.0227
     30 H           2.2974    3.4139    0.9041 H       6  LIG6        0.0227
     31 H           2.3120    3.4261   -0.8431 H       6  LIG6        0.0227
     32 C          -1.7706    5.4930   -0.0170 C.ar    1  LIG1        0.0599
     33 C          -1.0132    6.6432   -0.0232 C.ar    1  LIG1        0.2318
     34 C          -1.8369    7.8147   -0.0340 C.ar    1  LIG1        0.1739
     35 C          -3.1756    7.4910   -0.0345 C.ar    1  LIG1        0.0216
     36 S          -3.4074    5.8350   -0.0232 S.2     1  LIG1       -0.0924
     37 H          -4.1608    8.3391   -0.0426 H       1  LIG1        0.0731
     38 O           0.2861    6.6885   -0.0202 O.3     1  LIG1       -0.2831
     39 C           0.8100    5.3579   -0.0191 C.3     5  LIG5        0.0673
     40 H           1.8793    5.3956   -0.0167 H       5  LIG5        0.0580
     41 H           0.4694    4.8411    0.8538 H       5  LIG5        0.2095
     42 H           0.4733    4.8413   -0.8935 H       5  LIG5        0.0580
     43 O          -1.3549    9.0220   -0.0421 O.3     1  LIG1       -0.4907
     44 C           0.0740    8.9654   -0.0451 C.3     1  LIG1        0.0790
     45 H           0.4703    9.9593   -0.0519 H       1  LIG1        0.0660
     46 H           0.4125    8.4525    0.8309 H       1  LIG1        0.0660
     47 H           0.4084    8.4421   -0.9164 H       1  LIG1        0.0660
@<TRIPOS>BOND
     1    47    44    1
     2    42    39    1
     3    16    13    1
     4    11     8    1
     5    31    28    1
     6    26    12    1
     7    45    44    1
     8    44    43    1
     9    44    46    1
    10    37    35    1
    11    43    34    1
    12    35    34   ar
    13    35    36   ar
    14    34    33   ar
    15    33    38    1
    16    33    32   ar
    17    36    32   ar
    18    21    20    1
    19    21    17    1
    20    39    40    1
    21    39    27    1
    22    32    20    1
    23    14    13    1
    24    13    15    1
    25    12    23    1
    26     9     8    1
    27     6     1    1
    28     8     7    1
    29     8    10    1
    30     7     2    1
    31     1     2    2
    32     1     5    1
    33     4     5    1
    34     4    17    2
    35    17    18    1
    36    18    22    1
    37    27    41    1
    38    28    29    1
    39    28    30    1
    40    23    24    1
    41    23    25    1
