@<TRIPOS>MOLECULE
mol_data/noopt/geoms/mol2/5ll5ll-5ll-.out
 47 42 0 0 0
SMALL
GASTEIGER

@<TRIPOS>ATOM
      1 C          -2.0792   -1.7080   -0.0002 C.2     1  LIG1        0.0213
      2 C          -0.7020   -1.7080   -0.0002 C.2     1  LIG1        0.1685
      3 C          -0.1766   -0.3757   -0.0002 C.3     1  LIG1        0.0384
      4 C          -1.1831    0.5643    0.0006 C.2     1  LIG1        0.0112
      5 S          -2.6937   -0.1528    0.0006 S.3     1  LIG1       -0.0964
      6 H          -2.8374   -2.7640   -0.0008 H       1  LIG1        0.0731
      7 O           0.0503   -2.7682   -0.0004 O.2     1  LIG1       -0.4909
      8 C          -0.7728   -3.9376   -0.0005 C.3     1  LIG1        0.0790
      9 H          -0.1533   -4.8099   -0.0009 H       1  LIG1        0.0660
     10 H          -1.3905   -3.9391    0.8733 H       1  LIG1        0.0660
     11 H          -1.3908   -3.9387   -0.8740 H       1  LIG1        0.0660
     12 O           1.0969   -0.1143   -0.0009 O.3     2  HOH2       -0.4105
     13 C           1.8355   -1.3388   -0.0012 C.3     3  LIG3       -0.0681
     14 H           2.8835   -1.1232   -0.0020 H       1  LIG1        0.0227
     15 H           1.5884   -1.9046    0.8727 H       1  LIG1        0.0227
     16 H           1.5872   -1.9049   -0.8746 H       1  LIG1        0.0227
     17 C          -1.0166    1.8536    0.0014 C.2     1  LIG1        0.0349
     18 C           0.1958    2.5069    0.0015 C.3     1  LIG1        0.1744
     19 C           0.0263    3.9290    0.0017 C.3     4  LIG4        0.0000
     20 C          -1.3057    4.2790    0.0026 C.3     1  LIG1        0.0980
     21 S          -2.2953    2.9311    0.0023 S.3     1  LIG1       -0.1099
     22 O           1.3610    1.9305    0.0013 O.3     1  LIG1       -0.3529
     23 C           1.1911    0.5106    0.0011 C.3     1  LIG1        0.1173
     24 H           2.1504    0.0366    0.0007 H       1  LIG1        0.0650
     25 H           0.6482    0.2162    0.8749 H       0  HOH0        0.2052
     26 H           0.6476    0.2165   -0.8724 H       0  HOH0        0.2052
     27 O           1.0233    4.7633    0.0012 O.3     3  LIG3       -0.3928
     28 C           2.2544    4.0357    0.0009 C.3     5  LIG5       -0.0681
     29 H           3.0747    4.7226    0.0003 H       4  LIG4        0.0227
     30 H           2.3052    3.4203    0.8748 H       4  LIG4        0.0227
     31 H           2.3044    3.4196   -0.8725 H       4  LIG4        0.0227
     32 C          -1.7708    5.4930    0.0035 C.ar    1  LIG1        0.0599
     33 C          -1.0136    6.6432    0.0227 C.ar    1  LIG1        0.2318
     34 C          -1.8374    7.8147    0.0172 C.ar    1  LIG1        0.1739
     35 C          -3.1758    7.4910   -0.0051 C.ar    1  LIG1        0.0216
     36 S          -3.4074    5.8351   -0.0192 S.2     1  LIG1       -0.0924
     37 H          -4.1610    8.3391   -0.0144 H       1  LIG1        0.0731
     38 O           0.2855    6.6885    0.0432 O.3     1  LIG1       -0.2831
     39 C           0.8094    5.3579    0.0506 C.3     3  LIG3        0.0673
     40 H           1.8786    5.3956    0.0673 H       3  LIG3        0.0580
     41 H           0.4572    4.8407    0.9187 H       3  LIG3        0.0580
     42 H           0.4844    4.8417   -0.8284 H       3  LIG3        0.2095
     43 O          -1.3555    9.0221    0.0317 O.3     1  LIG1       -0.4907
     44 C           0.0734    8.9656    0.0369 C.3     1  LIG1        0.0790
     45 H           0.4696    9.9595    0.0487 H       1  LIG1        0.0660
     46 H           0.4064    8.4386    0.9067 H       1  LIG1        0.0660
     47 H           0.4135    8.4565   -0.8405 H       1  LIG1        0.0660
@<TRIPOS>BOND
     1    16    13    1
     2    11     8    1
     3    31    28    1
     4    26    12    1
     5    47    44    1
     6    42    27    1
     7    36    35   ar
     8    36    32   ar
     9    37    35    1
    10    35    34   ar
    11    14    13    1
    12    13    15    1
    13    12    25    1
    14     9     8    1
    15     6     1    1
    16     8     7    1
    17     8    10    1
    18     7     2    1
    19     1     2    2
    20     1     5    1
    21     3     4    1
    22    29    28    1
    23     4     5    1
    24     4    17    2
    25    24    23    1
    26    28    30    1
    27    23    22    1
    28    27    39    1
    29    22    18    1
    30    17    18    1
    31    17    21    1
    32    21    20    1
    33    20    32    1
    34    32    33   ar
    35    34    33   ar
    36    34    43    1
    37    33    38    1
    38    43    44    1
    39    44    45    1
    40    44    46    1
    41    39    40    1
    42    39    41    1
