@<TRIPOS>MOLECULE
mol_data/noopt/geoms/mol2/5ll5ll-.out
 32 30 0 0 0
SMALL
GASTEIGER

@<TRIPOS>ATOM
      1 C          -2.0792   -1.7080   -0.0002 C.2     1  LIG1        0.0216
      2 C          -0.7020   -1.7080   -0.0002 C.2     1  LIG1        0.1685
      3 C          -0.1766   -0.3757   -0.0002 C.2     1  LIG1        0.0076
      4 C          -1.1831    0.5643    0.0006 C.2     1  LIG1        0.0380
      5 S          -2.6937   -0.1528    0.0006 S.3     1  LIG1       -0.0917
      6 H          -2.8374   -2.7640   -0.0008 H       1  LIG1        0.0731
      7 O           0.0503   -2.7682   -0.0004 O.2     1  LIG1       -0.4909
      8 C          -0.7728   -3.9376   -0.0005 C.3     1  LIG1        0.0790
      9 H          -0.1533   -4.8099   -0.0009 H       1  LIG1        0.0660
     10 H          -1.3905   -3.9391    0.8733 H       1  LIG1        0.0660
     11 H          -1.3908   -3.9387   -0.8740 H       1  LIG1        0.0660
     12 O           1.0969   -0.1143   -0.0009 O.3     2  HOH2       -0.4105
     13 C           1.8355   -1.3388   -0.0012 C.3     3  LIG3       -0.0681
     14 H           2.8835   -1.1232   -0.0020 H       1  LIG1        0.0227
     15 H           1.5884   -1.9046    0.8727 H       1  LIG1        0.0227
     16 H           1.5872   -1.9049   -0.8746 H       1  LIG1        0.0227
     17 C          -1.0166    1.8536    0.0014 C.ar    1  LIG1        0.0719
     18 C           0.1958    2.5069    0.0015 C.ar    1  LIG1        0.1779
     19 C           0.0263    3.9290    0.0017 C.ar    1  LIG1        0.1692
     20 C          -1.3057    4.2790    0.0026 C.ar    1  LIG1        0.0218
     21 S          -2.2953    2.9311    0.0023 S.2     1  LIG1       -0.0886
     22 H          -1.7708    5.4930    0.0035 H       1  LIG1        0.0731
     23 O           1.3610    1.9305    0.0013 O.3     1  LIG1       -0.4763
     24 C           1.1911    0.5106    0.0011 C.3     1  LIG1        0.1807
     25 H           2.1504    0.0366    0.0007 H       1  LIG1        0.0811
     26 H           0.6482    0.2162    0.8749 H       0  HOH0        0.2052
     27 H           0.6476    0.2165   -0.8724 H       0  HOH0        0.2052
     28 O           1.0233    4.7633    0.0012 O.3     1  LIG1       -0.4909
     29 C           2.2544    4.0357    0.0009 C.3     1  LIG1        0.0790
     30 H           3.0747    4.7226    0.0003 H       1  LIG1        0.0660
     31 H           2.3052    3.4203    0.8748 H       1  LIG1        0.0660
     32 H           2.3044    3.4196   -0.8725 H       1  LIG1        0.0660
@<TRIPOS>BOND
     1    16    13    1
     2    11     8    1
     3    32    29    1
     4    27    12    1
     5    14    13    1
     6    13    15    1
     7    12    26    1
     8     9     8    1
     9     6     1    1
    10     8     7    1
    11     8    10    1
    12     7     2    1
    13     1     2    2
    14     1     5    1
    15     3     4    2
    16    30    29    1
    17     5     4    1
    18     4    17    1
    19    25    24    1
    20    29    28    1
    21    29    31    1
    22    24    23    1
    23    28    19    1
    24    23    18    1
    25    17    18   ar
    26    17    21   ar
    27    18    19   ar
    28    19    20   ar
    29    21    20   ar
    30    20    22    1
