@<TRIPOS>MOLECULE
mol_data/noopt/geoms/mol2/5ll5ll.out
 32 29 0 0 0
SMALL
GASTEIGER

@<TRIPOS>ATOM
      1 C          -2.0792   -1.7080   -0.0002 C.2     1  LIG1        0.0177
      2 C          -0.7020   -1.7080   -0.0002 C.2     1  LIG1        0.1682
      3 C          -0.1766   -0.3757   -0.0002 C.3     2  LIG2        0.0000
      4 C          -1.1831    0.5643    0.0006 C.3     1  LIG1        0.0977
      5 S          -2.6937   -0.1528    0.0006 S.3     1  LIG1       -0.1135
      6 H          -2.8374   -2.7640   -0.0008 H       1  LIG1        0.0728
      7 O           0.0503   -2.7682   -0.0004 O.2     1  LIG1       -0.4909
      8 C          -0.7728   -3.9376   -0.0005 C.3     1  LIG1        0.0790
      9 H          -0.1533   -4.8099   -0.0009 H       1  LIG1        0.0660
     10 H          -1.3905   -3.9391    0.8733 H       1  LIG1        0.0660
     11 H          -1.3908   -3.9387   -0.8740 H       1  LIG1        0.0660
     12 O           1.0969   -0.1143   -0.0009 O.3     2  LIG2       -0.3928
     13 C           1.8355   -1.3388   -0.0012 C.3     3  LIG3       -0.0681
     14 H           2.8835   -1.1232   -0.0020 H       3  LIG3        0.0227
     15 H           1.5884   -1.9046    0.8727 H       3  LIG3        0.0227
     16 H           1.5872   -1.9049   -0.8746 H       3  LIG3        0.0227
     17 C          -1.0166    1.8536    0.0014 C.ar    1  LIG1        0.0599
     18 C           0.1956    2.5069    0.0205 C.ar    1  LIG1        0.2318
     19 C           0.0262    3.9290    0.0147 C.ar    1  LIG1        0.1739
     20 C          -1.3056    4.2790   -0.0075 C.ar    1  LIG1        0.0216
     21 S          -2.2951    2.9311   -0.0215 S.2     1  LIG1       -0.0924
     22 H          -1.7706    5.4930   -0.0170 H       1  LIG1        0.0731
     23 O           1.3607    1.9305    0.0410 O.3     1  LIG1       -0.2831
     24 C           1.1906    0.5107    0.0485 C.3     2  LIG2        0.0673
     25 H           2.1498    0.0366    0.0652 H       2  LIG2        0.0580
     26 H           0.6352    0.2225    0.9165 H       2  LIG2        0.0580
     27 H           0.6597    0.2104   -0.8306 H       2  LIG2        0.2095
     28 O           1.0231    4.7633    0.0291 O.3     1  LIG1       -0.4907
     29 C           2.2542    4.0357    0.0343 C.3     1  LIG1        0.0790
     30 H           3.0745    4.7227    0.0460 H       1  LIG1        0.0660
     31 H           2.2974    3.4139    0.9041 H       1  LIG1        0.0660
     32 H           2.3120    3.4261   -0.8431 H       1  LIG1        0.0660
@<TRIPOS>BOND
     1    16    13    1
     2    11     8    1
     3    32    29    1
     4    27    12    1
     5    21    20   ar
     6    21    17   ar
     7    22    20    1
     8    20    19   ar
     9    14    13    1
    10    13    15    1
    11    12    24    1
    12     9     8    1
    13     6     1    1
    14     8     7    1
    15     8    10    1
    16     7     2    1
    17     1     2    2
    18     1     5    1
    19     5     4    1
    20     4    17    1
    21    17    18   ar
    22    19    18   ar
    23    19    28    1
    24    18    23    1
    25    28    29    1
    26    29    30    1
    27    29    31    1
    28    24    25    1
    29    24    26    1
