@<TRIPOS>MOLECULE
mol_data/noopt/geoms/mol2/5ll5ll-5ll-5ll.out
 62 55 0 0 0
SMALL
GASTEIGER

@<TRIPOS>ATOM
      1 C          -2.0792   -1.7080   -0.0002 C.2     1  LIG1        0.0213
      2 C          -0.7020   -1.7080   -0.0002 C.2     1  LIG1        0.1685
      3 C          -0.1766   -0.3757   -0.0002 C.3     1  LIG1        0.0384
      4 C          -1.1831    0.5643    0.0006 C.2     1  LIG1        0.0115
      5 S          -2.6937   -0.1528    0.0006 S.3     1  LIG1       -0.0963
      6 H          -2.8374   -2.7640   -0.0008 H       1  LIG1        0.0731
      7 O           0.0503   -2.7682   -0.0004 O.2     1  LIG1       -0.4909
      8 C          -0.7728   -3.9376   -0.0005 C.3     1  LIG1        0.0790
      9 H          -0.1533   -4.8099   -0.0009 H       1  LIG1        0.0660
     10 H          -1.3905   -3.9391    0.8733 H       1  LIG1        0.0660
     11 H          -1.3908   -3.9387   -0.8740 H       1  LIG1        0.0660
     12 O           1.0969   -0.1143   -0.0009 O.3     2  HOH2       -0.4105
     13 C           1.8355   -1.3388   -0.0012 C.3     3  LIG3       -0.0681
     14 H           2.8835   -1.1232   -0.0020 H       1  LIG1        0.0227
     15 H           1.5884   -1.9046    0.8727 H       1  LIG1        0.0227
     16 H           1.5872   -1.9049   -0.8746 H       1  LIG1        0.0227
     17 C          -1.0166    1.8536    0.0014 C.2     1  LIG1        0.0388
     18 C           0.1958    2.5069    0.0015 C.3     1  LIG1        0.1747
     19 C           0.0263    3.9290    0.0017 C.3     4  LIG4        0.0000
     20 C          -1.3057    4.2790    0.0026 C.2     1  LIG1        0.0399
     21 S          -2.2953    2.9311    0.0023 S.3     1  LIG1       -0.0879
     22 O           1.3610    1.9305    0.0013 O.3     1  LIG1       -0.3529
     23 C           1.1911    0.5106    0.0011 C.3     1  LIG1        0.1173
     24 H           2.1504    0.0366    0.0007 H       1  LIG1        0.0650
     25 H           0.6482    0.2162    0.8749 H       0  HOH0        0.2052
     26 H           0.6476    0.2165   -0.8724 H       0  HOH0        0.2052
     27 O           1.0233    4.7633    0.0012 O.3     3  LIG3       -0.3928
     28 C           2.2544    4.0357    0.0009 C.3     5  LIG5       -0.0681
     29 H           3.0747    4.7226    0.0003 H       4  LIG4        0.0227
     30 H           2.3052    3.4203    0.8748 H       4  LIG4        0.0227
     31 H           2.3044    3.4196   -0.8725 H       4  LIG4        0.0227
     32 C          -1.7708    5.4930    0.0035 C.2     1  LIG1        0.0466
     33 C          -1.0136    6.6432    0.0227 C.3     1  LIG1        0.2155
     34 C          -1.8374    7.8147    0.0172 C.2     1  LIG1        0.0076
     35 C          -3.1758    7.4910   -0.0051 C.2     1  LIG1        0.0383
     36 S          -3.4074    5.8351   -0.0192 S.3     1  LIG1       -0.0876
     37 O           0.2855    6.6885    0.0432 O.3     1  LIG1       -0.2146
     38 C           0.8094    5.3579    0.0506 C.3     3  LIG3        0.0673
     39 H           1.8786    5.3956    0.0673 H       3  LIG3        0.0580
     40 H           0.4572    4.8407    0.9187 H       3  LIG3        0.0580
     41 H           0.4844    4.8417   -0.8284 H       3  LIG3        0.2095
     42 O          -1.3555    9.0221    0.0317 O.3     6  HOH6       -0.4105
     43 C           0.0734    8.9656    0.0369 C.3     7  LIG7       -0.0681
     44 H           0.4696    9.9595    0.0487 H       5  LIG5        0.0227
     45 H           0.4064    8.4386    0.9067 H       5  LIG5        0.0227
     46 H           0.4135    8.4565   -0.8405 H       5  LIG5        0.0227
     47 C          -4.1610    8.3391   -0.0144 C.ar    1  LIG1        0.0719
     48 C          -4.0401    9.7110   -0.0016 C.ar    1  LIG1        0.1779
     49 C          -5.3209   10.3515   -0.0181 C.ar    1  LIG1        0.1692
     50 C          -6.3455    9.4316   -0.0417 C.ar    1  LIG1        0.0218
     51 S          -5.7639    7.8638   -0.0443 S.2     1  LIG1       -0.0886
     52 H          -7.6151    9.7108   -0.0601 H       1  LIG1        0.0731
     53 O          -2.9180   10.3671    0.0222 O.3     1  LIG1       -0.4763
     54 C          -1.8256    9.4444    0.0309 C.3     1  LIG1        0.1807
     55 H          -0.9023    9.9848    0.0504 H       1  LIG1        0.0811
     56 H          -1.8922    8.8209    0.8980 H       0  HOH0        0.2052
     57 H          -1.8648    8.8369   -0.8490 H       0  HOH0        0.2052
     58 O          -5.4695   11.6430   -0.0111 O.3     1  LIG1       -0.4909
     59 C          -4.1848   12.2711   -0.0087 C.3     1  LIG1        0.0790
     60 H          -4.3075   13.3341   -0.0031 H       1  LIG1        0.0660
     61 H          -3.6423   11.9702    0.8632 H       1  LIG1        0.0660
     62 H          -3.6433   11.9792   -0.8841 H       1  LIG1        0.0660
@<TRIPOS>BOND
     1    62    59    1
     2    16    13    1
     3    11     8    1
     4    31    28    1
     5    26    12    1
     6    57    42    1
     7    46    43    1
     8    41    27    1
     9    52    50    1
    10    51    50   ar
    11    51    47   ar
    12    50    49   ar
    13    36    35    1
    14    36    32    1
    15    49    58    1
    16    49    48   ar
    17    47    35    1
    18    47    48   ar
    19    58    59    1
    20    59    60    1
    21    59    61    1
    22    35    34    2
    23    14    13    1
    24    48    53    1
    25    13    15    1
    26    12    25    1
    27     9     8    1
    28     6     1    1
    29     8     7    1
    30     8    10    1
    31     7     2    1
    32     1     2    2
    33     1     5    1
    34     3     4    1
    35    29    28    1
    36     4     5    1
    37     4    17    2
    38    24    23    1
    39    28    30    1
    40    23    22    1
    41    27    38    1
    42    22    18    1
    43    17    18    1
    44    17    21    1
    45    21    20    1
    46    20    32    2
    47    32    33    1
    48    53    54    1
    49    33    37    1
    50    54    55    1
    51    42    56    1
    52    43    44    1
    53    43    45    1
    54    38    39    1
    55    38    40    1
