@<TRIPOS>MOLECULE
mol_data/noopt/geoms/mol2/5ll5ll-5ll5ll-.out
 62 56 0 0 0
SMALL
GASTEIGER

@<TRIPOS>ATOM
      1 C          -2.0792   -1.7080   -0.0002 C.2     1  LIG1        0.0213
      2 C          -0.7020   -1.7080   -0.0002 C.2     1  LIG1        0.1685
      3 C          -0.1766   -0.3757   -0.0002 C.3     1  LIG1        0.0384
      4 C          -1.1831    0.5643    0.0006 C.2     1  LIG1        0.0115
      5 S          -2.6937   -0.1528    0.0006 S.3     1  LIG1       -0.0963
      6 H          -2.8374   -2.7640   -0.0008 H       1  LIG1        0.0731
      7 O           0.0503   -2.7682   -0.0004 O.2     1  LIG1       -0.4909
      8 C          -0.7728   -3.9376   -0.0005 C.3     1  LIG1        0.0790
      9 H          -0.1533   -4.8099   -0.0009 H       1  LIG1        0.0660
     10 H          -1.3905   -3.9391    0.8733 H       1  LIG1        0.0660
     11 H          -1.3908   -3.9387   -0.8740 H       1  LIG1        0.0660
     12 O           1.0969   -0.1143   -0.0009 O.3     2  HOH2       -0.4105
     13 C           1.8355   -1.3388   -0.0012 C.3     3  LIG3       -0.0681
     14 H           2.8835   -1.1232   -0.0020 H       1  LIG1        0.0227
     15 H           1.5884   -1.9046    0.8727 H       1  LIG1        0.0227
     16 H           1.5872   -1.9049   -0.8746 H       1  LIG1        0.0227
     17 C          -1.0166    1.8536    0.0014 C.2     1  LIG1        0.0385
     18 C           0.1958    2.5069    0.0015 C.3     1  LIG1        0.1747
     19 C           0.0263    3.9290    0.0017 C.3     1  LIG1        0.0384
     20 C          -1.3057    4.2790    0.0026 C.2     1  LIG1        0.0117
     21 S          -2.2953    2.9311    0.0023 S.3     1  LIG1       -0.0927
     22 O           1.3610    1.9305    0.0013 O.3     1  LIG1       -0.3529
     23 C           1.1911    0.5106    0.0011 C.3     1  LIG1        0.1173
     24 H           2.1504    0.0366    0.0007 H       1  LIG1        0.0650
     25 H           0.6482    0.2162    0.8749 H       0  HOH0        0.2052
     26 H           0.6476    0.2165   -0.8724 H       0  HOH0        0.2052
     27 O           1.0233    4.7633    0.0012 O.3     4  HOH4       -0.4105
     28 C           2.2544    4.0357    0.0009 C.3     5  LIG5       -0.0681
     29 H           3.0747    4.7226    0.0003 H       2  HOH2        0.0227
     30 H           2.3052    3.4203    0.8748 H       2  HOH2        0.0227
     31 H           2.3044    3.4196   -0.8725 H       2  HOH2        0.0227
     32 C          -1.7708    5.4930    0.0035 C.2     1  LIG1        0.0388
     33 C          -1.0134    6.6433    0.0038 C.3     1  LIG1        0.1747
     34 C          -1.8373    7.8147    0.0042 C.2     1  LIG1        0.0076
     35 C          -3.1759    7.4910    0.0050 C.2     1  LIG1        0.0383
     36 S          -3.4076    5.8350    0.0046 S.3     1  LIG1       -0.0880
     37 O           0.2858    6.6886    0.0035 O.3     1  LIG1       -0.3529
     38 C           0.8098    5.3581    0.0033 C.3     1  LIG1        0.1173
     39 H           1.8792    5.3958    0.0028 H       1  LIG1        0.0650
     40 H           0.4715    4.8414    0.8771 H       0  HOH0        0.2052
     41 H           0.4708    4.8413   -0.8702 H       0  HOH0        0.2052
     42 O          -1.3553    9.0221    0.0038 O.3     6  HOH6       -0.4105
     43 C           0.0736    8.9657    0.0035 C.3     7  LIG7       -0.0681
     44 H           0.4699    9.9596    0.0030 H       3  LIG3        0.0227
     45 H           0.4102    8.4479    0.8774 H       3  LIG3        0.0227
     46 H           0.4099    8.4472   -0.8699 H       3  LIG3        0.0227
     47 C          -4.1612    8.3391    0.0062 C.ar    1  LIG1        0.0719
     48 C          -4.0401    9.7109    0.0065 C.ar    1  LIG1        0.1779
     49 C          -5.3211   10.3514    0.0071 C.ar    1  LIG1        0.1692
     50 C          -6.3459    9.4314    0.0079 C.ar    1  LIG1        0.0218
     51 S          -5.7643    7.8636    0.0073 S.2     1  LIG1       -0.0886
     52 H          -7.6156    9.7105    0.0092 H       1  LIG1        0.0731
     53 O          -2.9179   10.3672    0.0061 O.3     1  LIG1       -0.4763
     54 C          -1.8254    9.4445    0.0059 C.3     1  LIG1        0.1807
     55 H          -0.9020    9.9850    0.0054 H       1  LIG1        0.0811
     56 H          -1.8781    8.8292    0.8798 H       0  HOH0        0.2052
     57 H          -1.8787    8.8288   -0.8675 H       0  HOH0        0.2052
     58 O          -5.4696   11.6429    0.0067 O.3     1  LIG1       -0.4909
     59 C          -4.1849   12.2710    0.0066 C.3     1  LIG1        0.0790
     60 H          -4.3076   13.3340    0.0061 H       1  LIG1        0.0660
     61 H          -3.6430   11.9749    0.8804 H       1  LIG1        0.0660
     62 H          -3.6429   11.9742   -0.8669 H       1  LIG1        0.0660
@<TRIPOS>BOND
     1    16    13    1
     2    11     8    1
     3    31    28    1
     4    26    12    1
     5    41    27    1
     6    46    43    1
     7    57    42    1
     8    62    59    1
     9    14    13    1
    10    13    15    1
    11    12    25    1
    12     9     8    1
    13     6     1    1
    14     8     7    1
    15     8    10    1
    16     7     2    1
    17     1     2    2
    18     1     5    1
    19     3     4    1
    20    29    28    1
    21     4     5    1
    22     4    17    2
    23    24    23    1
    24    28    30    1
    25    23    22    1
    26    27    40    1
    27    22    18    1
    28    17    18    1
    29    17    21    1
    30    19    20    1
    31    21    20    1
    32    20    32    2
    33    39    38    1
    34    44    43    1
    35    38    37    1
    36    37    33    1
    37    43    45    1
    38    32    33    1
    39    32    36    1
    40    42    56    1
    41    34    35    2
    42    36    35    1
    43    35    47    1
    44    55    54    1
    45    54    53    1
    46    53    48    1
    47    60    59    1
    48    47    48   ar
    49    47    51   ar
    50    48    49   ar
    51    59    58    1
    52    59    61    1
    53    58    49    1
    54    49    50   ar
    55    51    50   ar
    56    50    52    1
