@<TRIPOS>MOLECULE
mol_data/noopt/geoms/mol2/5ll5ll-5ll-5ll-.out
 62 54 0 0 0
SMALL
GASTEIGER

@<TRIPOS>ATOM
      1 C          -2.0792   -1.7080   -0.0002 C.2     1  LIG1        0.0213
      2 C          -0.7020   -1.7080   -0.0002 C.2     1  LIG1        0.1685
      3 C          -0.1766   -0.3757   -0.0002 C.3     1  LIG1        0.0384
      4 C          -1.1831    0.5643    0.0006 C.2     1  LIG1        0.0115
      5 S          -2.6937   -0.1528    0.0006 S.3     1  LIG1       -0.0963
      6 H          -2.8374   -2.7640   -0.0008 H       1  LIG1        0.0731
      7 O           0.0503   -2.7682   -0.0004 O.2     1  LIG1       -0.4909
      8 C          -0.7728   -3.9376   -0.0005 C.3     1  LIG1        0.0790
      9 H          -0.1533   -4.8099   -0.0009 H       1  LIG1        0.0660
     10 H          -1.3905   -3.9391    0.8733 H       1  LIG1        0.0660
     11 H          -1.3908   -3.9387   -0.8740 H       1  LIG1        0.0660
     12 O           1.0969   -0.1143   -0.0009 O.3     2  HOH2       -0.4105
     13 C           1.8355   -1.3388   -0.0012 C.3     3  LIG3       -0.0681
     14 H           2.8835   -1.1232   -0.0020 H       1  LIG1        0.0227
     15 H           1.5884   -1.9046    0.8727 H       1  LIG1        0.0227
     16 H           1.5872   -1.9049   -0.8746 H       1  LIG1        0.0227
     17 C          -1.0166    1.8536    0.0014 C.2     1  LIG1        0.0388
     18 C           0.1958    2.5069    0.0015 C.3     1  LIG1        0.1747
     19 C           0.0263    3.9290    0.0017 C.3     4  LIG4        0.0000
     20 C          -1.3057    4.2790    0.0026 C.2     1  LIG1        0.0396
     21 S          -2.2953    2.9311    0.0023 S.3     1  LIG1       -0.0879
     22 O           1.3610    1.9305    0.0013 O.3     1  LIG1       -0.3529
     23 C           1.1911    0.5106    0.0011 C.3     1  LIG1        0.1173
     24 H           2.1504    0.0366    0.0007 H       1  LIG1        0.0650
     25 H           0.6482    0.2162    0.8749 H       0  HOH0        0.2052
     26 H           0.6476    0.2165   -0.8724 H       0  HOH0        0.2052
     27 O           1.0233    4.7633    0.0012 O.3     3  LIG3       -0.3928
     28 C           2.2544    4.0357    0.0009 C.3     5  LIG5       -0.0681
     29 H           3.0747    4.7226    0.0003 H       4  LIG4        0.0227
     30 H           2.3052    3.4203    0.8748 H       4  LIG4        0.0227
     31 H           2.3044    3.4196   -0.8725 H       4  LIG4        0.0227
     32 C          -1.7708    5.4930    0.0035 C.2     1  LIG1        0.0427
     33 C          -1.0136    6.6432    0.0227 C.3     1  LIG1        0.2152
     34 C          -1.8374    7.8147    0.0172 C.3     6  LIG6        0.0000
     35 C          -3.1758    7.4910   -0.0051 C.3     1  LIG1        0.0980
     36 S          -3.4074    5.8351   -0.0192 S.3     1  LIG1       -0.1095
     37 O           0.2855    6.6885    0.0432 O.3     1  LIG1       -0.2146
     38 C           0.8094    5.3579    0.0506 C.3     3  LIG3        0.0673
     39 H           1.8786    5.3956    0.0673 H       3  LIG3        0.0580
     40 H           0.4572    4.8407    0.9187 H       3  LIG3        0.0580
     41 H           0.4844    4.8417   -0.8284 H       3  LIG3        0.2095
     42 O          -1.3555    9.0221    0.0317 O.3     6  LIG6       -0.3928
     43 C           0.0734    8.9656    0.0369 C.3     7  LIG7       -0.0681
     44 H           0.4696    9.9595    0.0487 H       7  LIG7        0.0227
     45 H           0.4064    8.4386    0.9067 H       7  LIG7        0.0227
     46 H           0.4135    8.4565   -0.8405 H       7  LIG7        0.0227
     47 C          -4.1610    8.3391   -0.0144 C.ar    1  LIG1        0.0599
     48 C          -4.0399    9.7110   -0.0205 C.ar    1  LIG1        0.2318
     49 C          -5.3208   10.3515   -0.0311 C.ar    1  LIG1        0.1739
     50 C          -6.3457    9.4315   -0.0316 C.ar    1  LIG1        0.0216
     51 S          -5.7642    7.8638   -0.0205 S.2     1  LIG1       -0.0924
     52 H          -7.6153    9.7107   -0.0396 H       1  LIG1        0.0731
     53 O          -2.9176   10.3672   -0.0175 O.3     1  LIG1       -0.2831
     54 C          -1.8252    9.4444   -0.0165 C.3     6  LIG6        0.0673
     55 H          -0.9017    9.9849   -0.0141 H       6  LIG6        0.0580
     56 H          -1.8798    8.8279    0.8565 H       6  LIG6        0.2095
     57 H          -1.8766    8.8299   -0.8908 H       6  LIG6        0.0580
     58 O          -5.4692   11.6430   -0.0391 O.3     1  LIG1       -0.4907
     59 C          -4.1845   12.2710   -0.0421 C.3     1  LIG1        0.0790
     60 H          -4.3070   13.3340   -0.0488 H       1  LIG1        0.0660
     61 H          -3.6431   11.9800    0.8339 H       1  LIG1        0.0660
     62 H          -3.6419   11.9691   -0.9134 H       1  LIG1        0.0660
@<TRIPOS>BOND
     1    62    59    1
     2    57    54    1
     3    16    13    1
     4    11     8    1
     5    31    28    1
     6    26    12    1
     7    46    43    1
     8    41    27    1
     9    60    59    1
    10    59    58    1
    11    59    61    1
    12    52    50    1
    13    58    49    1
    14    50    49   ar
    15    50    51   ar
    16    49    48   ar
    17    48    53    1
    18    48    47   ar
    19    51    47   ar
    20    36    35    1
    21    36    32    1
    22    54    55    1
    23    54    42    1
    24    47    35    1
    25    14    13    1
    26    13    15    1
    27    12    25    1
    28     9     8    1
    29     6     1    1
    30     8     7    1
    31     8    10    1
    32     7     2    1
    33     1     2    2
    34     1     5    1
    35     3     4    1
    36    29    28    1
    37     4     5    1
    38     4    17    2
    39    24    23    1
    40    28    30    1
    41    23    22    1
    42    27    38    1
    43    22    18    1
    44    17    18    1
    45    17    21    1
    46    21    20    1
    47    20    32    2
    48    32    33    1
    49    33    37    1
    50    42    56    1
    51    43    44    1
    52    43    45    1
    53    38    39    1
    54    38    40    1
