@<TRIPOS>MOLECULE
mol_data/noopt/geoms/mol2/6aa13ld13dl-6fe-6ea4ad4hh13ih.out
 98 104 0 0 0
SMALL
GASTEIGER

@<TRIPOS>ATOM
      1 C          -4.5775   -2.0270    0.0001 C.2     1  LIG1        0.0284
      2 C          -3.1706   -2.0270    0.0001 C.2     1  LIG1       -0.0436
      3 C          -2.5039   -0.8004    0.0001 C.2     1  LIG1       -0.0603
      4 C          -3.2580    0.3743   -0.0001 C.2     1  LIG1       -0.0617
      5 C          -4.6612    0.2715   -0.0003 C.2     1  LIG1        0.1181
      6 N          -5.3207   -0.9034   -0.0001 N.2     1  LIG1       -0.2512
      7 H          -1.4054   -0.7607   -0.0009 H       1  LIG1        0.0618
      8 H          -2.5135   -3.1487    0.0004 H       1  LIG1        0.0633
      9 H          -5.2431   -3.1437    0.0002 H       1  LIG1        0.0830
     10 H          -2.6846    1.5410   -0.0003 H       1  LIG1        0.0618
     11 C          -5.4065    1.3366   -0.0004 C.ar    1  LIG1        0.1111
     12 C          -5.0646    2.6523   -0.0008 C.ar    1  LIG1        0.1648
     13 C          -6.2797    3.4100    0.0004 C.ar    1  LIG1        0.1206
     14 C          -7.3108    2.5240   -0.0003 C.ar    1  LIG1        0.0860
     15 N          -6.7806    1.2535   -0.0003 N.ar    1  LIG1       -0.3478
     16 H          -7.3066    0.4100   -0.0008 H       1  LIG1        0.1661
     17 O          -3.8558    3.1308   -0.0007 O.3     1  LIG1       -0.4916
     18 C          -2.9159    2.0531   -0.0008 C.3     1  LIG1        0.0789
     19 H          -1.9212    2.4473   -0.0008 H       1  LIG1        0.0660
     20 H          -3.0615    1.4528    0.8730 H       1  LIG1        0.0660
     21 H          -3.0617    1.4527   -0.8743 H       1  LIG1        0.0660
     22 N          -6.4724    5.8490    0.0023 N.1     1  LIG1       -0.1907
     23 C          -6.3821    4.7060    0.0014 C.1     1  LIG1        0.1050
     24 C          -8.5953    2.7244    0.0002 C.ar    1  LIG1        0.0860
     25 C          -9.3072    3.8825    0.0002 C.ar    1  LIG1        0.1206
     26 C         -10.6954    3.5311    0.0020 C.ar    1  LIG1        0.1634
     27 C         -10.7707    2.1738    0.0013 C.ar    1  LIG1        0.0957
     28 N          -9.4873    1.6759    0.0007 N.ar    1  LIG1       -0.3489
     29 H          -9.2434    0.7123   -0.0000 H       1  LIG1        0.1661
     30 N          -8.3805    6.1468    0.0001 N.1     1  LIG1       -0.1907
     31 C          -8.8148    5.0857    0.0001 C.1     1  LIG1        0.1050
     32 O         -11.7009    4.3552    0.0035 O.3     1  LIG1       -0.4917
     33 C         -11.2156    5.7003    0.0040 C.3     1  LIG1        0.0789
     34 H         -12.0435    6.3782    0.0051 H       1  LIG1        0.0660
     35 H         -10.6194    5.8641    0.8773 H       1  LIG1        0.0660
     36 H         -10.6208    5.8652   -0.8700 H       1  LIG1        0.0660
     37 C         -11.6358   -0.0101   -0.0184 C.ar    1  LIG1        0.2224
     38 C         -11.8052    1.3864    0.0021 C.ar    1  LIG1        0.0644
     39 C         -13.1030    1.9004    0.0236 C.ar    1  LIG1       -0.0299
     40 C         -14.1783    1.0103    0.0237 C.ar    1  LIG1        0.0516
     41 C         -13.9074   -0.3702    0.0021 C.ar    1  LIG1        0.0928
     42 N         -12.6618   -0.8832   -0.0186 N.ar    1  LIG1       -0.2111
     43 H         -13.2746    2.9860    0.0390 H       1  LIG1        0.0639
     44 O         -10.4472   -0.5363   -0.0387 O.3     1  LIG1       -0.4919
     45 H          -9.7880    0.1615   -0.0437 H       1  LIG1        0.2937
     46 C         -15.4055    1.4389    0.0431 C.1     1  LIG1       -0.0675
     47 C         -16.5394    1.8349    0.0610 C.1     1  LIG1       -0.1138
     48 H         -17.5494    2.1877    0.0769 H       1  LIG1        0.1232
     49 C         -14.5937   -2.6168    0.0010 C.ar    1  LIG1        0.1230
     50 C         -14.8750   -1.2383    0.0013 C.ar    1  LIG1        0.0355
     51 C         -16.2102   -0.8304    0.0010 C.ar    1  LIG1       -0.0478
     52 C         -17.2104   -1.8042    0.0004 C.ar    1  LIG1       -0.0350
     53 C         -16.8290   -3.1585   -0.0001 C.ar    1  LIG1        0.0725
     54 N         -15.5459   -3.5697    0.0004 N.ar    1  LIG1       -0.2378
     55 H         -16.4688    0.2380    0.0002 H       1  LIG1        0.0626
     56 C         -13.3664   -3.0456    0.0014 C.1     1  LIG1       -0.0491
     57 C         -12.2325   -3.4418    0.0017 C.1     1  LIG1       -0.1124
     58 H         -11.2224   -3.7948    0.0019 H       1  LIG1        0.1232
     59 H         -18.4682   -1.4757   -0.0001 H       1  LIG1        0.0639
     60 C         -19.0939   -3.7702   -0.0001 C.ar    1  LIG1       -0.0519
     61 C         -20.0233   -4.8283    0.0008 C.ar    1  LIG1       -0.0521
     62 C         -17.7235   -4.1017   -0.0006 C.ar    1  LIG1        0.0016
     63 C         -19.6090   -6.1583    0.0006 C.ar    1  LIG1        0.0013
     64 H         -21.0857   -4.5948    0.0013 H       1  LIG1        0.0624
     65 C         -17.3093   -5.4293   -0.0008 C.ar    1  LIG1       -0.0346
     66 C         -18.2480   -6.4663   -0.0003 C.ar    1  LIG1        0.0601
     67 H         -16.2468   -5.6592   -0.0010 H       1  LIG1        0.0637
     68 H         -19.5413   -2.5496   -0.0002 H       1  LIG1        0.0624
     69 N         -17.5081   -8.7984   -0.0002 N.1     1  LIG1       -0.1908
     70 C         -17.8548   -7.7055   -0.0002 C.1     1  LIG1        0.0998
     71 C         -21.8678   -6.7920    0.0025 C.ar    1  LIG1        0.0331
     72 C         -22.7870   -7.8589    0.0049 C.ar    1  LIG1       -0.0296
     73 C         -20.4943   -7.1101    0.0014 C.ar    1  LIG1        0.0058
     74 C         -22.3597   -9.1849    0.0054 C.ar    1  LIG1        0.0210
     75 H         -23.8516   -7.6358    0.0060 H       1  LIG1        0.0643
     76 C         -20.0672   -8.4336    0.0019 C.ar    1  LIG1       -0.0309
     77 C         -20.9958   -9.4797    0.0038 C.ar    1  LIG1        0.0345
     78 H         -19.0026   -8.6532    0.0011 H       1  LIG1        0.0643
     79 N         -22.3270   -5.5757    0.0019 N.pl3   1  LIG1       -0.3575
     80 H         -21.6808   -4.9757   -0.4697 H       1  LIG1        0.1423
     81 H         -23.2085   -5.5525   -0.4697 H       1  LIG1        0.1423
     82 N         -20.5906  -10.7150    0.0044 N.pl3   1  LIG1       -0.3574
     83 H         -21.2625  -11.2864   -0.4668 H       1  LIG1        0.1423
     84 H         -19.7109  -10.7775   -0.4668 H       1  LIG1        0.1423
     85 C         -23.2358  -10.1453    0.0074 C.ar    1  LIG1        0.0530
     86 C         -24.5944  -10.0998    0.0085 C.ar    1  LIG1       -0.0045
     87 C         -25.0676  -11.4513    0.0118 C.ar    1  LIG1        0.0456
     88 C         -23.9774  -12.2633    0.0110 C.ar    1  LIG1        0.0233
     89 N         -22.8538  -11.4679    0.0087 N.ar    1  LIG1       -0.3588
     90 H         -21.9156  -11.7964    0.0076 H       1  LIG1        0.1654
     91 H         -23.8917  -13.5605    0.0129 H       1  LIG1        0.0826
     92 C         -25.3261   -9.0249    0.0081 C.3     1  LIG1       -0.0360
     93 H         -26.2491   -9.2215    0.5124 H       1  LIG1        0.0279
     94 H         -25.5267   -8.7303   -1.0009 H       1  LIG1        0.0279
     95 H         -24.8046   -8.2383    0.5123 H       1  LIG1        0.0279
     96 N         -26.3097  -11.8350    0.0147 N.pl3   1  LIG1       -0.3566
     97 H         -26.8702  -11.1535   -0.4559 H       1  LIG1        0.1424
     98 H         -26.3883  -12.7137   -0.4560 H       1  LIG1        0.1424
@<TRIPOS>BOND
     1    94    92    1
     2    21    18    1
     3    36    33    1
     4    81    79    1
     5    80    79    1
     6    84    82    1
     7    83    82    1
     8    98    96    1
     9    97    96    1
    10    45    44    1
    11    44    37    1
    12    42    37   ar
    13    42    41   ar
    14    37    38   ar
    15    67    65    1
    16     7     3    1
    17    19    18    1
    18    12    17    1
    19    12    11   ar
    20    12    13   ar
    21    16    15    1
    22    65    62   ar
    23    65    66   ar
    24    18    17    1
    25    18    20    1
    26    62    60   ar
    27    62    53    1
    28    11     5    1
    29    11    15   ar
    30    10     4    1
    31     5     6    2
    32    15    14   ar
    33    14    24    1
    34    14    13   ar
    35    66    70    1
    36    66    63   ar
    37    70    69    3
    38    68    60    1
    39    60    61   ar
    40     6     1    1
    41     4     3    2
    42    59    52    1
    43    53    52   ar
    44    53    54   ar
    45    29    28    1
    46     1     2    2
    47     1     9    1
    48     2     3    1
    49     2     8    1
    50    30    31    3
    51    31    25    1
    52    25    24   ar
    53    25    26   ar
    54    24    28   ar
    55    55    51    1
    56    52    51   ar
    57    13    23    1
    58    54    49   ar
    59    63    61   ar
    60    63    73    1
    61    28    27   ar
    62    61    64    1
    63    51    50   ar
    64    49    50   ar
    65    49    56    1
    66    78    76    1
    67    27    26   ar
    68    27    38    1
    69    50    41    1
    70    73    76   ar
    71    73    71   ar
    72    56    57    3
    73    23    22    3
    74    57    58    1
    75    79    71    1
    76    76    77   ar
    77    26    32    1
    78    41    40   ar
    79    38    39   ar
    80    71    72   ar
    81    32    33    1
    82    77    82    1
    83    77    74   ar
    84    33    34    1
    85    33    35    1
    86    72    74   ar
    87    72    75    1
    88    74    85    1
    89    85    86   ar
    90    85    89   ar
    91    90    89    1
    92    92    86    1
    93    92    95    1
    94    92    93    1
    95    86    87   ar
    96    89    88   ar
    97    88    87   ar
    98    88    91    1
    99    87    96    1
   100    39    40   ar
   101    39    43    1
   102    40    46    1
   103    46    47    3
   104    47    48    1
