@<TRIPOS>MOLECULE
mol_data/noopt/geoms/mol2/6aa12le-4ef12af-.out
 45 47 0 0 0
SMALL
GASTEIGER

@<TRIPOS>ATOM
      1 C          -4.5775   -2.0270    0.0001 C.ar    1  LIG1        0.0284
      2 C          -3.1706   -2.0270    0.0001 C.ar    1  LIG1       -0.0430
      3 C          -2.5039   -0.8004    0.0001 C.ar    1  LIG1       -0.0504
      4 C          -3.2580    0.3743   -0.0001 C.ar    1  LIG1        0.0134
      5 C          -4.6612    0.2715   -0.0003 C.ar    1  LIG1        0.1176
      6 N          -5.3207   -0.9034   -0.0001 N.ar    1  LIG1       -0.2511
      7 H          -1.4054   -0.7607   -0.0009 H       1  LIG1        0.0625
      8 H          -2.5135   -3.1487    0.0004 H       1  LIG1        0.0633
      9 H          -5.2431   -3.1437    0.0002 H       1  LIG1        0.0830
     10 H          -2.6846    1.5410   -0.0003 H       1  LIG1        0.0194
     11 C          -5.4065    1.3366   -0.0004 C.ar    1  LIG1        0.2020
     12 C          -5.1777    2.6969    0.0143 C.ar    1  LIG1        0.2418
     13 C          -6.4770    3.3362    0.0035 C.ar    1  LIG1        0.1178
     14 C          -7.4140    2.3237   -0.0171 C.ar    1  LIG1        0.1562
     15 O          -6.7784    1.0815   -0.0201 O.2     1  LIG1       -0.4480
     16 O          -4.0320    3.3109    0.0342 O.3     1  LIG1       -0.2825
     17 C          -2.9746    2.3482    0.0414 C.3     2  LIG2       -0.0776
     18 H          -2.0318    2.8540    0.0575 H       1  LIG1        0.0194
     19 H          -3.0620    1.7289    0.9096 H       1  LIG1        0.0194
     20 H          -3.0388    1.7414   -0.8375 H       1  LIG1        0.0194
     21 C          -6.6906    4.6185    0.0120 C.1     1  LIG1       -0.0620
     22 C          -6.8879    5.8034    0.0199 C.1     1  LIG1       -0.1137
     23 H          -7.0636    6.8588    0.0268 H       1  LIG1        0.1232
     24 C          -9.4707    3.4520   -0.0423 C.ar    1  LIG1        0.0363
     25 C         -10.8739    3.3333   -0.0591 C.ar    1  LIG1       -0.0315
     26 C          -8.7124    2.2634   -0.0340 C.ar    1  LIG1        0.0375
     27 C         -11.4967    2.0872   -0.0677 C.ar    1  LIG1        0.0599
     28 H         -11.4781    4.2378   -0.0655 H       1  LIG1        0.0638
     29 C          -9.3337    1.0192   -0.0427 C.ar    1  LIG1       -0.0076
     30 C         -10.7289    0.9220   -0.0597 C.ar    1  LIG1        0.1282
     31 H          -8.7270    0.1173   -0.0358 H       1  LIG1        0.0662
     32 C          -8.9475    4.6421   -0.0352 C.1     1  LIG1       -0.0689
     33 C          -8.4640    5.7417   -0.0286 C.1     1  LIG1       -0.1139
     34 H          -8.0334    6.7212   -0.0227 H       1  LIG1        0.1232
     35 O         -11.3041   -0.2438   -0.0675 O.3     1  LIG1       -0.5060
     36 H         -10.6343   -0.9316   -0.0695 H       1  LIG1        0.2922
     37 C         -12.7945    2.0144   -0.0833 C.ar    1  LIG1        0.1420
     38 C         -13.8305    2.9253   -0.0951 C.ar    1  LIG1        0.0259
     39 C         -15.0580    2.1572   -0.1102 C.ar    1  LIG1        0.1550
     40 C         -14.6905    0.8274   -0.1068 C.ar    1  LIG1        0.1338
     41 O         -13.3000    0.7136   -0.0904 O.2     1  LIG1       -0.4591
     42 H         -15.3230   -0.3084   -0.1151 H       1  LIG1        0.1068
     43 H         -13.7492    4.2228   -0.0931 H       1  LIG1        0.0692
     44 O         -16.2606    2.6510   -0.1243 O.3     1  LIG1       -0.5036
     45 H         -16.9006    1.9355   -0.1277 H       1  LIG1        0.2923
@<TRIPOS>BOND
     1    20    17    1
     2    45    44    1
     3    44    39    1
     4    42    40    1
     5    39    40   ar
     6    39    38   ar
     7    40    41   ar
     8    38    43    1
     9    38    37   ar
    10    41    37   ar
    11    37    27    1
    12    36    35    1
    13    27    30   ar
    14    27    25   ar
    15    35    30    1
    16    28    25    1
    17    30    29   ar
    18    25    24   ar
    19    29    31    1
    20    29    26   ar
    21    24    32    1
    22    24    26   ar
    23    32    33    3
    24    26    14    1
    25    33    34    1
    26    15    14   ar
    27    15    11   ar
    28    14    13   ar
    29     7     3    1
    30    11     5    1
    31    11    12   ar
    32    10    17    1
    33     5     6   ar
    34     5     4   ar
    35     6     1   ar
    36     4     3   ar
    37     1     2   ar
    38     1     9    1
    39     3     2   ar
    40     2     8    1
    41    13    21    1
    42    13    12   ar
    43    21    22    3
    44    12    16    1
    45    22    23    1
    46    17    18    1
    47    17    19    1
