@<TRIPOS>MOLECULE
mol_data/noopt/geoms/mol2/6aa4dd13aa12hf.out
 41 44 0 0 0
SMALL
GASTEIGER

@<TRIPOS>ATOM
      1 C          -4.5775   -2.0270    0.0001 C.ar    1  LIG1        0.0283
      2 C          -3.1706   -2.0270    0.0001 C.ar    1  LIG1       -0.0436
      3 C          -2.5039   -0.8004    0.0001 C.ar    1  LIG1       -0.0583
      4 C          -3.2580    0.3743   -0.0001 C.ar    1  LIG1       -0.0357
      5 C          -4.6612    0.2715   -0.0003 C.ar    1  LIG1        0.0722
      6 N          -5.3207   -0.9034   -0.0001 N.ar    1  LIG1       -0.2549
      7 H          -1.4054   -0.7607   -0.0009 H       1  LIG1        0.0619
      8 H          -2.5135   -3.1487    0.0004 H       1  LIG1        0.0633
      9 H          -5.2431   -3.1437    0.0002 H       1  LIG1        0.0830
     10 H          -2.6846    1.5410   -0.0003 H       1  LIG1        0.0639
     11 C          -4.8076    2.6130    0.0003 C.ar    1  LIG1        0.0616
     12 C          -5.6584    3.7353    0.0017 C.ar    1  LIG1       -0.0334
     13 C          -5.4065    1.3366   -0.0004 C.ar    1  LIG1        0.0189
     14 C          -7.0444    3.5952    0.0018 C.ar    1  LIG1        0.0169
     15 H          -5.2172    4.7295    0.0025 H       1  LIG1        0.0637
     16 C          -6.7901    1.1962   -0.0003 C.ar    1  LIG1       -0.0333
     17 C          -7.6184    2.3233    0.0007 C.ar    1  LIG1        0.0615
     18 H          -7.2278    0.2012   -0.0008 H       1  LIG1        0.0637
     19 N          -2.3885    2.9785   -0.0002 N.1     1  LIG1       -0.1908
     20 C          -3.5222    2.8072    0.0000 C.1     1  LIG1        0.0998
     21 N         -10.0513    2.0648    0.0011 N.1     1  LIG1       -0.1908
     22 C          -8.9112    2.1860    0.0009 C.1     1  LIG1        0.0998
     23 C          -7.8000    4.6531    0.0030 C.ar    1  LIG1        0.0483
     24 C          -7.4709    5.9720    0.0034 C.ar    1  LIG1       -0.0357
     25 C          -8.6933    6.7179    0.0060 C.ar    1  LIG1       -0.0327
     26 C          -9.7157    5.8219    0.0052 C.ar    1  LIG1        0.0845
     27 N          -9.1733    4.5566    0.0038 N.ar    1  LIG1       -0.3517
     28 H          -9.6910    3.7081    0.0029 H       1  LIG1        0.1660
     29 H          -6.2668    6.4622    0.0032 H       1  LIG1        0.0639
     30 H          -8.8082    8.0128    0.0081 H       1  LIG1        0.0640
     31 C         -11.0020    6.0099    0.0066 C.ar    1  LIG1        0.1751
     32 C         -11.8352    7.1092    0.0224 C.ar    1  LIG1        0.1145
     33 C         -13.1915    6.6020    0.0131 C.ar    1  LIG1        0.1763
     34 C         -13.0971    5.2257   -0.0080 C.ar    1  LIG1        0.1359
     35 O         -11.7572    4.8364   -0.0124 O.2     1  LIG1       -0.4558
     36 H         -13.9438    4.2393   -0.0240 H       1  LIG1        0.1068
     37 N         -11.4964    8.3642    0.0421 N.pl3   1  LIG1       -0.3522
     38 H         -10.6194    8.4800   -0.4242 H       1  LIG1        0.1425
     39 H         -12.1959    8.9057   -0.4243 H       1  LIG1        0.1425
     40 O         -14.2713    7.3260    0.0229 O.3     1  LIG1       -0.5024
     41 H         -15.0413    6.7528    0.0253 H       1  LIG1        0.2923
@<TRIPOS>BOND
     1    39    37    1
     2    38    37    1
     3    36    34    1
     4    35    34   ar
     5    35    31   ar
     6    34    33   ar
     7     7     3    1
     8    18    16    1
     9    13    16   ar
    10    13     5    1
    11    13    11   ar
    12    16    17   ar
    13    10     4    1
    14     5     6   ar
    15     5     4   ar
    16    19    20    3
    17     6     1   ar
    18     4     3   ar
    19    20    11    1
    20     1     2   ar
    21     1     9    1
    22     3     2   ar
    23     2     8    1
    24    11    12   ar
    25    17    22    1
    26    17    14   ar
    27    22    21    3
    28    12    14   ar
    29    12    15    1
    30    14    23    1
    31    28    27    1
    32    23    24   ar
    33    23    27   ar
    34    29    24    1
    35    24    25   ar
    36    27    26   ar
    37    26    25   ar
    38    26    31    1
    39    25    30    1
    40    31    32   ar
    41    33    32   ar
    42    33    40    1
    43    32    37    1
    44    40    41    1
