@<TRIPOS>MOLECULE
mol_data/noopt/geoms/mol2/6aa6hi(180)13ed(50)13fe.out
 47 50 0 0 0
SMALL
GASTEIGER

@<TRIPOS>ATOM
      1 C          -4.5775   -2.0270    0.0001 C.ar    1  LIG1        0.0283
      2 C          -3.1706   -2.0270    0.0001 C.ar    1  LIG1       -0.0436
      3 C          -2.5039   -0.8004    0.0001 C.ar    1  LIG1       -0.0583
      4 C          -3.2580    0.3743   -0.0001 C.ar    1  LIG1       -0.0356
      5 C          -4.6612    0.2715   -0.0003 C.ar    1  LIG1        0.0742
      6 N          -5.3207   -0.9034   -0.0001 N.ar    1  LIG1       -0.2549
      7 H          -1.4054   -0.7607   -0.0009 H       1  LIG1        0.0619
      8 H          -2.5135   -3.1487    0.0004 H       1  LIG1        0.0633
      9 H          -5.2431   -3.1437    0.0002 H       1  LIG1        0.0830
     10 H          -2.6846    1.5410   -0.0003 H       1  LIG1        0.0639
     11 C          -4.8196    2.6153   -0.0006 C.ar    1  LIG1        0.1261
     12 C          -5.4065    1.3366   -0.0004 C.ar    1  LIG1        0.0401
     13 C          -6.7994    1.2424   -0.0006 C.ar    1  LIG1       -0.0443
     14 C          -7.5524    2.4178   -0.0008 C.ar    1  LIG1       -0.0223
     15 C          -6.8736    3.6502   -0.0008 C.ar    1  LIG1        0.0934
     16 N          -5.5307    3.7594   -0.0008 N.ar    1  LIG1       -0.2300
     17 H          -7.2937    0.2606    0.0006 H       1  LIG1        0.0628
     18 N          -3.5270    2.7543   -0.0006 N.pl3   1  LIG1       -0.3426
     19 H          -3.1083    1.9782   -0.4719 H       1  LIG1        0.1437
     20 H          -3.2830    3.6018   -0.4720 H       1  LIG1        0.1437
     21 C          -8.8523    2.3834   -0.0008 C.3     1  LIG1       -0.0376
     22 H          -9.1857    1.5006    0.5036 H       1  LIG1        0.0278
     23 H          -9.2089    2.3739   -1.0097 H       1  LIG1        0.0278
     24 H          -9.2319    3.2473    0.5035 H       1  LIG1        0.0278
     25 C          -7.5308    4.7719   -0.0011 C.ar    1  LIG1        0.0826
     26 C          -7.3749    5.8856    0.7627 C.ar    1  LIG1        0.0694
     27 C          -8.3679    6.8306    0.3486 C.ar    1  LIG1        0.0945
     28 C          -9.0858    6.2535   -0.6512 C.ar    1  LIG1        0.0858
     29 N          -8.5769    4.9929   -0.8682 N.ar    1  LIG1       -0.3497
     30 H          -8.9114    4.3453   -1.5441 H       1  LIG1        0.1661
     31 C          -6.4875    6.0568    1.6971 C.1     1  LIG1       -0.0662
     32 C          -5.6675    6.2151    2.5606 C.1     1  LIG1       -0.1138
     33 H          -4.9372    6.3560    3.3297 H       1  LIG1        0.1232
     34 N          -8.7140    9.0721    1.2660 N.1     1  LIG1       -0.1908
     35 C          -8.5518    8.0216    0.8361 C.1     1  LIG1        0.1026
     36 C         -10.0865    6.7109   -1.3436 C.ar    1  LIG1        0.1074
     37 C         -10.3432    7.9655   -1.7996 C.ar    1  LIG1        0.1589
     38 C         -11.5868    7.9170   -2.5079 C.ar    1  LIG1        0.0840
     39 C         -12.0346    6.6345   -2.4550 C.ar    1  LIG1        0.0213
     40 N         -11.1192    5.8928   -1.7428 N.ar    1  LIG1       -0.3554
     41 H         -11.1922    4.9208   -1.5482 H       1  LIG1        0.1655
     42 H         -13.1105    6.0957   -2.9470 H       1  LIG1        0.0820
     43 O          -9.5957    9.0142   -1.6221 O.3     1  LIG1       -0.5035
     44 H         -10.1483    9.7980   -1.5783 H       1  LIG1        0.2923
     45 C         -12.1810    8.9133   -3.0948 C.1     1  LIG1       -0.0645
     46 C         -12.7300    9.8338   -3.6372 C.1     1  LIG1       -0.1137
     47 H         -13.2191   10.6538   -4.1202 H       1  LIG1        0.1232
@<TRIPOS>BOND
     1    47    46    1
     2    46    45    3
     3    45    38    1
     4    42    39    1
     5    38    39   ar
     6    38    37   ar
     7    39    40   ar
     8    37    43    1
     9    37    36   ar
    10    40    41    1
    11    40    36   ar
    12    43    44    1
    13    30    29    1
    14    36    28    1
    15    23    21    1
    16    29    28   ar
    17    29    25   ar
    18    28    27   ar
    19    20    18    1
    20    19    18    1
    21    25    15    1
    22    25    26   ar
    23     7     3    1
    24    16    15   ar
    25    16    11   ar
    26    15    14   ar
    27    21    14    1
    28    21    24    1
    29    21    22    1
    30    14    13   ar
    31    11    18    1
    32    11    12   ar
    33    13    12   ar
    34    13    17    1
    35    12     5    1
    36    10     4    1
    37     5     6   ar
    38     5     4   ar
    39     6     1   ar
    40     4     3   ar
    41     1     2   ar
    42     1     9    1
    43     3     2   ar
    44     2     8    1
    45    27    26   ar
    46    27    35    1
    47    26    31    1
    48    35    34    3
    49    31    32    3
    50    32    33    1
