@<TRIPOS>MOLECULE
mol_data/noopt/geoms/mol2/6aa6aa6aa-6aa.out
 38 41 0 0 0
SMALL
GASTEIGER

@<TRIPOS>ATOM
      1 C          -4.5775   -2.0270    0.0001 C.ar    1  LIG1        0.0283
      2 C          -3.1706   -2.0270    0.0001 C.ar    1  LIG1       -0.0436
      3 C          -2.5039   -0.8004    0.0001 C.ar    1  LIG1       -0.0583
      4 C          -3.2580    0.3743   -0.0001 C.ar    1  LIG1       -0.0356
      5 C          -4.6612    0.2715   -0.0003 C.ar    1  LIG1        0.0724
      6 N          -5.3207   -0.9034   -0.0001 N.ar    1  LIG1       -0.2549
      7 H          -1.4054   -0.7607   -0.0009 H       1  LIG1        0.0619
      8 H          -2.5135   -3.1487    0.0004 H       1  LIG1        0.0633
      9 H          -5.2431   -3.1437    0.0002 H       1  LIG1        0.0830
     10 H          -2.6846    1.5410   -0.0003 H       1  LIG1        0.0639
     11 C          -6.8088    1.2233   -0.0003 C.ar    1  LIG1        0.0374
     12 C          -5.4065    1.3366   -0.0004 C.ar    1  LIG1        0.0185
     13 C          -4.8408    2.6129   -0.0003 C.ar    1  LIG1       -0.0491
     14 C          -5.6871    3.7231   -0.0003 C.ar    1  LIG1       -0.0350
     15 C          -7.0774    3.5076   -0.0004 C.ar    1  LIG1        0.0724
     16 N          -7.6401    2.2834   -0.0003 N.ar    1  LIG1       -0.2543
     17 H          -3.7491    2.7410   -0.0014 H       1  LIG1        0.0625
     18 H          -7.3823    0.0566   -0.0003 H       1  LIG1        0.0836
     19 H          -5.2095    4.9322   -0.0004 H       1  LIG1        0.0639
     20 C          -7.4241    5.8310   -0.0000 C.ar    1  LIG1        0.0374
     21 C          -7.9061    4.5092   -0.0003 C.ar    1  LIG1        0.0185
     22 C          -9.2869    4.3031   -0.0001 C.ar    1  LIG1       -0.0491
     23 C         -10.1321    5.4140    0.0002 C.ar    1  LIG1       -0.0350
     24 C          -9.5548    6.6971    0.0002 C.ar    1  LIG1        0.0724
     25 N          -8.2251    6.9141    0.0002 N.ar    1  LIG1       -0.2543
     26 H          -9.7005    3.2847   -0.0012 H       1  LIG1        0.0625
     27 H          -6.1470    6.0737   -0.0001 H       1  LIG1        0.0836
     28 H         -11.4247    5.2750    0.0002 H       1  LIG1        0.0639
     29 C         -11.7025    7.6489    0.0008 C.ar    1  LIG1        0.0367
     30 C         -10.3001    7.7622    0.0005 C.ar    1  LIG1        0.0184
     31 C          -9.7344    9.0385    0.0008 C.ar    1  LIG1       -0.0497
     32 C         -10.5807   10.1487    0.0012 C.ar    1  LIG1       -0.0430
     33 C         -11.9710    9.9332    0.0013 C.ar    1  LIG1        0.0276
     34 N         -12.5338    8.7090    0.0012 N.ar    1  LIG1       -0.2626
     35 H          -8.6427    9.1666   -0.0004 H       1  LIG1        0.0625
     36 H         -12.7997   10.9348    0.0018 H       1  LIG1        0.0829
     37 H         -12.2760    6.4822    0.0006 H       1  LIG1        0.0836
     38 H         -10.1031   11.3578    0.0014 H       1  LIG1        0.0633
@<TRIPOS>BOND
     1    17    13    1
     2    26    22    1
     3     7     3    1
     4    35    31    1
     5    12     5    1
     6    12    11   ar
     7    12    13   ar
     8    15    16   ar
     9    15    21    1
    10    15    14   ar
    11    19    14    1
    12     5     6   ar
    13     5     4   ar
    14    10     4    1
    15    11    18    1
    16    11    16   ar
    17    13    14   ar
    18    21    22   ar
    19    21    20   ar
    20    27    20    1
    21     6     1   ar
    22     4     3   ar
    23    22    23   ar
    24    20    25   ar
    25     1     2   ar
    26     1     9    1
    27     3     2   ar
    28     2     8    1
    29    23    28    1
    30    23    24   ar
    31    24    25   ar
    32    24    30    1
    33    30    29   ar
    34    30    31   ar
    35    37    29    1
    36    29    34   ar
    37    31    32   ar
    38    34    33   ar
    39    32    33   ar
    40    32    38    1
    41    33    36    1
