@<TRIPOS>MOLECULE
mol_data/noopt/geoms/mol2/6aa6aa-6aa.out
 29 31 0 0 0
SMALL
GASTEIGER

@<TRIPOS>ATOM
      1 C          -4.5775   -2.0270    0.0001 C.ar    1  LIG1        0.0283
      2 C          -3.1706   -2.0270    0.0001 C.ar    1  LIG1       -0.0436
      3 C          -2.5039   -0.8004    0.0001 C.ar    1  LIG1       -0.0583
      4 C          -3.2580    0.3743   -0.0001 C.ar    1  LIG1       -0.0356
      5 C          -4.6612    0.2715   -0.0003 C.ar    1  LIG1        0.0724
      6 N          -5.3207   -0.9034   -0.0001 N.ar    1  LIG1       -0.2549
      7 H          -1.4054   -0.7607   -0.0009 H       1  LIG1        0.0619
      8 H          -2.5135   -3.1487    0.0004 H       1  LIG1        0.0633
      9 H          -5.2431   -3.1437    0.0002 H       1  LIG1        0.0830
     10 H          -2.6846    1.5410   -0.0003 H       1  LIG1        0.0639
     11 C          -4.8196    2.6153   -0.0003 C.ar    1  LIG1        0.0374
     12 C          -5.4065    1.3366   -0.0004 C.ar    1  LIG1        0.0185
     13 C          -6.7994    1.2424   -0.0003 C.ar    1  LIG1       -0.0491
     14 C          -7.5524    2.4178   -0.0003 C.ar    1  LIG1       -0.0350
     15 C          -6.8736    3.6502   -0.0004 C.ar    1  LIG1        0.0724
     16 N          -5.5307    3.7594   -0.0003 N.ar    1  LIG1       -0.2543
     17 H          -7.2937    0.2606   -0.0014 H       1  LIG1        0.0625
     18 H          -3.5271    2.7543   -0.0003 H       1  LIG1        0.0836
     19 H          -8.8520    2.3834   -0.0004 H       1  LIG1        0.0639
     20 C          -8.9376    4.7719   -0.0001 C.ar    1  LIG1        0.0367
     21 C          -7.5307    4.7719   -0.0003 C.ar    1  LIG1        0.0184
     22 C          -6.8640    5.9985   -0.0001 C.ar    1  LIG1       -0.0497
     23 C          -7.6181    7.1732    0.0002 C.ar    1  LIG1       -0.0430
     24 C          -9.0213    7.0704    0.0002 C.ar    1  LIG1        0.0276
     25 N          -9.6808    5.8955    0.0002 N.ar    1  LIG1       -0.2626
     26 H          -5.7655    6.0382   -0.0012 H       1  LIG1        0.0625
     27 H          -9.7666    8.1355    0.0005 H       1  LIG1        0.0829
     28 H          -9.6032    3.6552   -0.0002 H       1  LIG1        0.0836
     29 H          -7.0447    8.3399    0.0002 H       1  LIG1        0.0633
@<TRIPOS>BOND
     1    17    13    1
     2    26    22    1
     3     7     3    1
     4    12    13   ar
     5    12     5    1
     6    12    11   ar
     7    19    14    1
     8    15    14   ar
     9    15    21    1
    10    15    16   ar
    11    13    14   ar
    12     5     6   ar
    13     5     4   ar
    14    10     4    1
    15    21    20   ar
    16    21    22   ar
    17    11    16   ar
    18    11    18    1
    19    28    20    1
    20     6     1   ar
    21     4     3   ar
    22    20    25   ar
    23    22    23   ar
    24     1     2   ar
    25     1     9    1
    26     3     2   ar
    27     2     8    1
    28    25    24   ar
    29    24    23   ar
    30    24    27    1
    31    23    29    1
