@<TRIPOS>MOLECULE
mol_data/noopt/geoms/mol2/6aa6aa.out
 20 21 0 0 0
SMALL
GASTEIGER

@<TRIPOS>ATOM
      1 C          -4.5775   -2.0270    0.0001 C.ar    1  LIG1        0.0283
      2 C          -3.1706   -2.0270    0.0001 C.ar    1  LIG1       -0.0436
      3 C          -2.5039   -0.8004    0.0001 C.ar    1  LIG1       -0.0583
      4 C          -3.2580    0.3743   -0.0001 C.ar    1  LIG1       -0.0356
      5 C          -4.6612    0.2715   -0.0003 C.ar    1  LIG1        0.0724
      6 N          -5.3207   -0.9034   -0.0001 N.ar    1  LIG1       -0.2549
      7 H          -1.4054   -0.7607   -0.0009 H       1  LIG1        0.0619
      8 H          -2.5135   -3.1487    0.0004 H       1  LIG1        0.0633
      9 H          -5.2431   -3.1437    0.0002 H       1  LIG1        0.0830
     10 H          -2.6846    1.5410   -0.0003 H       1  LIG1        0.0639
     11 C          -6.8088    1.2233   -0.0003 C.ar    1  LIG1        0.0367
     12 C          -5.4065    1.3366   -0.0004 C.ar    1  LIG1        0.0184
     13 C          -4.8408    2.6129   -0.0003 C.ar    1  LIG1       -0.0497
     14 C          -5.6871    3.7231   -0.0003 C.ar    1  LIG1       -0.0430
     15 C          -7.0774    3.5076   -0.0004 C.ar    1  LIG1        0.0276
     16 N          -7.6401    2.2834   -0.0003 N.ar    1  LIG1       -0.2626
     17 H          -3.7491    2.7410   -0.0014 H       1  LIG1        0.0625
     18 H          -7.9061    4.5092   -0.0003 H       1  LIG1        0.0829
     19 H          -7.3823    0.0566   -0.0003 H       1  LIG1        0.0836
     20 H          -5.2095    4.9322   -0.0004 H       1  LIG1        0.0633
@<TRIPOS>BOND
     1    17    13    1
     2     7     3    1
     3    12     5    1
     4    12    11   ar
     5    12    13   ar
     6    15    16   ar
     7    15    18    1
     8    15    14   ar
     9    20    14    1
    10     5     6   ar
    11     5     4   ar
    12    10     4    1
    13    11    19    1
    14    11    16   ar
    15    13    14   ar
    16     6     1   ar
    17     4     3   ar
    18     1     2   ar
    19     1     9    1
    20     3     2   ar
    21     2     8    1
