@<TRIPOS>MOLECULE
mol_data/noopt/geoms/mol2/6aa6aa6aa.out
 29 31 0 0 0
SMALL
GASTEIGER

@<TRIPOS>ATOM
      1 C          -4.5775   -2.0270    0.0001 C.ar    1  LIG1        0.0283
      2 C          -3.1706   -2.0270    0.0001 C.ar    1  LIG1       -0.0436
      3 C          -2.5039   -0.8004    0.0001 C.ar    1  LIG1       -0.0583
      4 C          -3.2580    0.3743   -0.0001 C.ar    1  LIG1       -0.0356
      5 C          -4.6612    0.2715   -0.0003 C.ar    1  LIG1        0.0724
      6 N          -5.3207   -0.9034   -0.0001 N.ar    1  LIG1       -0.2549
      7 H          -1.4054   -0.7607   -0.0009 H       1  LIG1        0.0619
      8 H          -2.5135   -3.1487    0.0004 H       1  LIG1        0.0633
      9 H          -5.2431   -3.1437    0.0002 H       1  LIG1        0.0830
     10 H          -2.6846    1.5410   -0.0003 H       1  LIG1        0.0639
     11 C          -6.8088    1.2233   -0.0003 C.ar    1  LIG1        0.0374
     12 C          -5.4065    1.3366   -0.0004 C.ar    1  LIG1        0.0185
     13 C          -4.8408    2.6129   -0.0003 C.ar    1  LIG1       -0.0491
     14 C          -5.6871    3.7231   -0.0003 C.ar    1  LIG1       -0.0350
     15 C          -7.0774    3.5076   -0.0004 C.ar    1  LIG1        0.0724
     16 N          -7.6401    2.2834   -0.0003 N.ar    1  LIG1       -0.2543
     17 H          -3.7491    2.7410   -0.0014 H       1  LIG1        0.0625
     18 H          -7.3823    0.0566   -0.0003 H       1  LIG1        0.0836
     19 H          -5.2095    4.9322   -0.0004 H       1  LIG1        0.0639
     20 C          -9.2948    4.2833   -0.0001 C.ar    1  LIG1        0.0367
     21 C          -7.9061    4.5092   -0.0003 C.ar    1  LIG1        0.0184
     22 C          -7.4450    5.8270   -0.0001 C.ar    1  LIG1       -0.0497
     23 C          -8.3780    6.8653    0.0002 C.ar    1  LIG1       -0.0430
     24 C          -9.7465    6.5385    0.0002 C.ar    1  LIG1        0.0276
     25 N         -10.2087    5.2730    0.0002 N.ar    1  LIG1       -0.2626
     26 H          -6.3672    6.0425   -0.0012 H       1  LIG1        0.0625
     27 H         -10.6531    7.4701    0.0005 H       1  LIG1        0.0829
     28 H          -9.7724    3.0742   -0.0002 H       1  LIG1        0.0836
     29 H          -7.9994    8.1090    0.0002 H       1  LIG1        0.0633
@<TRIPOS>BOND
     1    17    13    1
     2    26    22    1
     3     7     3    1
     4    12     5    1
     5    12    11   ar
     6    12    13   ar
     7    15    16   ar
     8    15    21    1
     9    15    14   ar
    10    19    14    1
    11     5     6   ar
    12     5     4   ar
    13    10     4    1
    14    11    18    1
    15    11    16   ar
    16    13    14   ar
    17    21    20   ar
    18    21    22   ar
    19    28    20    1
    20     6     1   ar
    21     4     3   ar
    22    20    25   ar
    23    22    23   ar
    24     1     2   ar
    25     1     9    1
    26     3     2   ar
    27     2     8    1
    28    25    24   ar
    29    24    23   ar
    30    24    27    1
    31    23    29    1
