@<TRIPOS>MOLECULE
mol_data/noopt/geoms/mol2/6aa6aa-4aa6aa.out
 39 42 0 0 0
SMALL
GASTEIGER

@<TRIPOS>ATOM
      1 C          -4.5775   -2.0270    0.0001 C.ar    1  LIG1        0.0283
      2 C          -3.1706   -2.0270    0.0001 C.ar    1  LIG1       -0.0436
      3 C          -2.5039   -0.8004    0.0001 C.ar    1  LIG1       -0.0583
      4 C          -3.2580    0.3743   -0.0001 C.ar    1  LIG1       -0.0356
      5 C          -4.6612    0.2715   -0.0003 C.ar    1  LIG1        0.0724
      6 N          -5.3207   -0.9034   -0.0001 N.ar    1  LIG1       -0.2549
      7 H          -1.4054   -0.7607   -0.0009 H       1  LIG1        0.0619
      8 H          -2.5135   -3.1487    0.0004 H       1  LIG1        0.0633
      9 H          -5.2431   -3.1437    0.0002 H       1  LIG1        0.0830
     10 H          -2.6846    1.5410   -0.0003 H       1  LIG1        0.0639
     11 C          -4.8196    2.6153   -0.0003 C.ar    1  LIG1        0.0374
     12 C          -5.4065    1.3366   -0.0004 C.ar    1  LIG1        0.0185
     13 C          -6.7994    1.2424   -0.0003 C.ar    1  LIG1       -0.0491
     14 C          -7.5524    2.4178   -0.0003 C.ar    1  LIG1       -0.0351
     15 C          -6.8736    3.6502   -0.0004 C.ar    1  LIG1        0.0710
     16 N          -5.5307    3.7594   -0.0003 N.ar    1  LIG1       -0.2543
     17 H          -7.2937    0.2606   -0.0014 H       1  LIG1        0.0625
     18 H          -3.5271    2.7543   -0.0003 H       1  LIG1        0.0836
     19 H          -8.8520    2.3834   -0.0004 H       1  LIG1        0.0639
     20 C          -6.8310    5.9958    0.0005 C.ar    1  LIG1       -0.0520
     21 C          -7.5886    7.1830    0.0022 C.ar    1  LIG1       -0.0534
     22 C          -7.5307    4.7718   -0.0003 C.ar    1  LIG1        0.0004
     23 C          -8.9814    7.1551    0.0023 C.ar    1  LIG1       -0.0164
     24 H          -7.0688    8.1385    0.0030 H       1  LIG1        0.0624
     25 C          -8.9211    4.7434   -0.0001 C.ar    1  LIG1       -0.0520
     26 C          -9.6560    5.9336    0.0011 C.ar    1  LIG1       -0.0534
     27 H          -9.4376    3.7869   -0.0006 H       1  LIG1        0.0624
     28 H          -5.5341    6.0859    0.0002 H       1  LIG1        0.0624
     29 H         -10.9556    5.9008    0.0014 H       1  LIG1        0.0624
     30 C         -11.0562    8.2567    0.0047 C.ar    1  LIG1        0.0352
     31 C          -9.6493    8.2703    0.0037 C.ar    1  LIG1        0.0002
     32 C          -8.9946    9.5034    0.0047 C.ar    1  LIG1       -0.0512
     33 C          -9.7600   10.6707    0.0063 C.ar    1  LIG1       -0.0430
     34 C         -11.1621   10.5543    0.0069 C.ar    1  LIG1        0.0276
     35 N         -11.8102    9.3730    0.0062 N.ar    1  LIG1       -0.2627
     36 H          -7.8965    9.5537    0.0030 H       1  LIG1        0.0625
     37 H         -11.9177   11.6121    0.0085 H       1  LIG1        0.0829
     38 H         -11.7109    7.1336    0.0040 H       1  LIG1        0.0836
     39 H          -9.1980   11.8429    0.0071 H       1  LIG1        0.0633
@<TRIPOS>BOND
     1    17    13    1
     2     7     3    1
     3    27    25    1
     4    12    13   ar
     5    12     5    1
     6    12    11   ar
     7    19    14    1
     8    15    14   ar
     9    15    22    1
    10    15    16   ar
    11    13    14   ar
    12     5     6   ar
    13     5     4   ar
    14    10     4    1
    15    22    25   ar
    16    22    20   ar
    17    11    16   ar
    18    11    18    1
    19     6     1   ar
    20     4     3   ar
    21    25    26   ar
    22     1     2   ar
    23     1     9    1
    24     3     2   ar
    25     2     8    1
    26    28    20    1
    27    20    21   ar
    28    26    29    1
    29    26    23   ar
    30    21    23   ar
    31    21    24    1
    32    23    31    1
    33    36    32    1
    34    31    30   ar
    35    31    32   ar
    36    38    30    1
    37    30    35   ar
    38    32    33   ar
    39    35    34   ar
    40    33    34   ar
    41    33    39    1
    42    34    37    1
