@<TRIPOS>MOLECULE
mol_data/noopt/geoms/mol2/6aa6fh-13ah12fe-.out
 43 46 0 0 0
SMALL
GASTEIGER

@<TRIPOS>ATOM
      1 C          -4.5775   -2.0270    0.0001 C.ar    1  LIG1        0.0283
      2 C          -3.1706   -2.0270    0.0001 C.ar    1  LIG1       -0.0436
      3 C          -2.5039   -0.8004    0.0001 C.ar    1  LIG1       -0.0583
      4 C          -3.2580    0.3743   -0.0001 C.ar    1  LIG1       -0.0355
      5 C          -4.6612    0.2715   -0.0003 C.ar    1  LIG1        0.0761
      6 N          -5.3207   -0.9034   -0.0001 N.ar    1  LIG1       -0.2548
      7 H          -1.4054   -0.7607   -0.0009 H       1  LIG1        0.0619
      8 H          -2.5135   -3.1487    0.0004 H       1  LIG1        0.0633
      9 H          -5.2431   -3.1437    0.0002 H       1  LIG1        0.0830
     10 H          -2.6846    1.5410   -0.0003 H       1  LIG1        0.0639
     11 C          -6.8087    1.2234   -0.0215 C.ar    1  LIG1        0.2224
     12 C          -5.4065    1.3366   -0.0004 C.ar    1  LIG1        0.0634
     13 C          -4.8409    2.6128    0.0206 C.ar    1  LIG1       -0.0246
     14 C          -5.6872    3.7230    0.0196 C.ar    1  LIG1        0.0532
     15 C          -7.0774    3.5076   -0.0025 C.ar    1  LIG1        0.1115
     16 N          -7.6400    2.2835   -0.0227 N.ar    1  LIG1       -0.2091
     17 H          -3.7493    2.7408    0.0363 H       1  LIG1        0.0645
     18 O          -7.3821    0.0568   -0.0413 O.3     1  LIG1       -0.4919
     19 H          -6.7112   -0.6299   -0.0462 H       1  LIG1        0.2937
     20 N          -5.2098    4.9320    0.0384 N.pl3   1  LIG1       -0.3563
     21 H          -4.3254    4.9484   -0.4281 H       1  LIG1        0.1424
     22 H          -5.8442    5.5482   -0.4282 H       1  LIG1        0.1424
     23 C          -7.9061    4.5092   -0.0043 C.ar    1  LIG1        0.0692
     24 C          -7.6712    5.8482   -0.0058 C.ar    1  LIG1       -0.0134
     25 C          -8.9435    6.5055   -0.0062 C.ar    1  LIG1        0.0540
     26 C          -9.8998    5.5394   -0.0067 C.ar    1  LIG1        0.1072
     27 N          -9.2691    4.3157   -0.0051 N.ar    1  LIG1       -0.3489
     28 H          -9.7253    3.4326   -0.0051 H       1  LIG1        0.1661
     29 H          -6.5050    6.4225   -0.0053 H       1  LIG1        0.0658
     30 N          -9.1499    7.7891   -0.0066 N.pl3   1  LIG1       -0.3562
     31 H          -8.3966    8.2477   -0.4781 H       1  LIG1        0.1424
     32 H         -10.0089    7.9884   -0.4781 H       1  LIG1        0.1424
     33 C         -11.1962    5.6357   -0.0074 C.ar    1  LIG1        0.1951
     34 C         -12.1052    6.6734   -0.0079 C.ar    1  LIG1        0.1799
     35 C         -13.4221    6.0712   -0.0085 C.ar    1  LIG1        0.1045
     36 C         -13.2304    4.7049   -0.0085 C.ar    1  LIG1        0.1117
     37 O         -11.8663    4.4115   -0.0079 O.2     1  LIG1       -0.4563
     38 H         -14.0050    3.6609   -0.0088 H       1  LIG1        0.1043
     39 O         -11.8562    7.9493   -0.0077 O.3     1  LIG1       -0.5024
     40 H         -12.6830    8.4372   -0.0076 H       1  LIG1        0.2923
     41 C         -14.5505    6.7169   -0.0091 C.1     1  LIG1       -0.0628
     42 C         -15.5930    7.3135   -0.0096 C.1     1  LIG1       -0.1137
     43 H         -16.5217    7.8449   -0.0101 H       1  LIG1        0.1232
@<TRIPOS>BOND
     1    32    30    1
     2    31    30    1
     3    22    20    1
     4    21    20    1
     5    19    18    1
     6    18    11    1
     7    16    11   ar
     8    16    15   ar
     9    11    12   ar
    10    43    42    1
    11    42    41    3
    12    41    35    1
    13    38    36    1
    14    35    36   ar
    15    35    34   ar
    16    36    37   ar
    17    34    39    1
    18    34    33   ar
    19    37    33   ar
    20    39    40    1
    21    33    26    1
    22    26    25   ar
    23    26    27   ar
    24    30    25    1
    25    25    24   ar
    26    24    29    1
    27    24    23   ar
    28    28    27    1
    29    27    23   ar
    30    23    15    1
    31    15    14   ar
    32     7     3    1
    33    12     5    1
    34    12    13   ar
    35    10     4    1
    36     5     4   ar
    37     5     6   ar
    38     4     3   ar
    39     6     1   ar
    40     2     3   ar
    41     2     1   ar
    42     2     8    1
    43     1     9    1
    44    14    13   ar
    45    14    20    1
    46    13    17    1
