@<TRIPOS>MOLECULE
mol_data/noopt/geoms/mol2/6aa6aa-6aa-6aa.out
 38 41 0 0 0
SMALL
GASTEIGER

@<TRIPOS>ATOM
      1 C          -4.5775   -2.0270    0.0001 C.ar    1  LIG1        0.0283
      2 C          -3.1706   -2.0270    0.0001 C.ar    1  LIG1       -0.0436
      3 C          -2.5039   -0.8004    0.0001 C.ar    1  LIG1       -0.0583
      4 C          -3.2580    0.3743   -0.0001 C.ar    1  LIG1       -0.0356
      5 C          -4.6612    0.2715   -0.0003 C.ar    1  LIG1        0.0724
      6 N          -5.3207   -0.9034   -0.0001 N.ar    1  LIG1       -0.2549
      7 H          -1.4054   -0.7607   -0.0009 H       1  LIG1        0.0619
      8 H          -2.5135   -3.1487    0.0004 H       1  LIG1        0.0633
      9 H          -5.2431   -3.1437    0.0002 H       1  LIG1        0.0830
     10 H          -2.6846    1.5410   -0.0003 H       1  LIG1        0.0639
     11 C          -4.8196    2.6153   -0.0003 C.ar    1  LIG1        0.0374
     12 C          -5.4065    1.3366   -0.0004 C.ar    1  LIG1        0.0185
     13 C          -6.7994    1.2424   -0.0003 C.ar    1  LIG1       -0.0491
     14 C          -7.5524    2.4178   -0.0003 C.ar    1  LIG1       -0.0350
     15 C          -6.8736    3.6502   -0.0004 C.ar    1  LIG1        0.0724
     16 N          -5.5307    3.7594   -0.0003 N.ar    1  LIG1       -0.2543
     17 H          -7.2937    0.2606   -0.0014 H       1  LIG1        0.0625
     18 H          -3.5271    2.7543   -0.0003 H       1  LIG1        0.0836
     19 H          -8.8520    2.3834   -0.0004 H       1  LIG1        0.0639
     20 C          -6.8427    5.9991   -0.0000 C.ar    1  LIG1        0.0374
     21 C          -7.5307    4.7719   -0.0003 C.ar    1  LIG1        0.0185
     22 C          -8.9267    4.7902   -0.0001 C.ar    1  LIG1       -0.0491
     23 C          -9.5826    6.0224    0.0002 C.ar    1  LIG1       -0.0350
     24 C          -8.8067    7.1961    0.0002 C.ar    1  LIG1        0.0724
     25 N          -7.4594    7.1968    0.0002 N.ar    1  LIG1       -0.2543
     26 H          -9.4985    3.8514   -0.0012 H       1  LIG1        0.0625
     27 H          -5.5432    6.0336   -0.0001 H       1  LIG1        0.0836
     28 H         -10.8807    6.0928    0.0002 H       1  LIG1        0.0639
     29 C         -10.7737    8.4804    0.0008 C.ar    1  LIG1        0.0367
     30 C          -9.3714    8.3671    0.0005 C.ar    1  LIG1        0.0184
     31 C          -8.6080    9.5360    0.0008 C.ar    1  LIG1       -0.0497
     32 C          -9.2650   10.7676    0.0012 C.ar    1  LIG1       -0.0430
     33 C         -10.6720   10.7782    0.0013 C.ar    1  LIG1        0.0276
     34 N         -11.4240    9.6602    0.0012 N.ar    1  LIG1       -0.2626
     35 H          -7.5099    9.4871   -0.0004 H       1  LIG1        0.0625
     36 H         -11.3291   11.8999    0.0018 H       1  LIG1        0.0829
     37 H         -11.5271    7.4210    0.0006 H       1  LIG1        0.0836
     38 H          -8.5995   11.8843    0.0014 H       1  LIG1        0.0633
@<TRIPOS>BOND
     1    17    13    1
     2    26    22    1
     3     7     3    1
     4    35    31    1
     5    12    13   ar
     6    12     5    1
     7    12    11   ar
     8    19    14    1
     9    15    14   ar
    10    15    21    1
    11    15    16   ar
    12    13    14   ar
    13     5     6   ar
    14     5     4   ar
    15    10     4    1
    16    21    22   ar
    17    21    20   ar
    18    11    16   ar
    19    11    18    1
    20    27    20    1
    21     6     1   ar
    22     4     3   ar
    23    22    23   ar
    24    20    25   ar
    25     1     2   ar
    26     1     9    1
    27     3     2   ar
    28     2     8    1
    29    23    24   ar
    30    23    28    1
    31    24    25   ar
    32    24    30    1
    33    30    29   ar
    34    30    31   ar
    35    37    29    1
    36    29    34   ar
    37    31    32   ar
    38    34    33   ar
    39    32    33   ar
    40    32    38    1
    41    33    36    1
