@<TRIPOS>MOLECULE
mol_data/noopt/geoms/mol2/6ad12af6fa4ha.out
 42 44 0 0 0
SMALL
GASTEIGER

@<TRIPOS>ATOM
      1 C          -4.5775   -2.0270    0.0001 C.ar    1  LIG1        0.0283
      2 C          -3.1706   -2.0270    0.0001 C.ar    1  LIG1       -0.0423
      3 C          -2.5039   -0.8004    0.0001 C.ar    1  LIG1       -0.0408
      4 C          -3.2580    0.3743   -0.0001 C.ar    1  LIG1        0.0777
      5 C          -4.6612    0.2715   -0.0003 C.ar    1  LIG1        0.0890
      6 N          -5.3207   -0.9034   -0.0001 N.ar    1  LIG1       -0.2537
      7 H          -1.4054   -0.7607   -0.0009 H       1  LIG1        0.0631
      8 H          -2.5135   -3.1487    0.0004 H       1  LIG1        0.0633
      9 H          -5.2431   -3.1437    0.0002 H       1  LIG1        0.0830
     10 N          -2.1789    2.5700   -0.0005 N.1     1  LIG1       -0.1908
     11 C          -2.6846    1.5410   -0.0003 C.1     1  LIG1        0.1013
     12 C          -5.4065    1.3366   -0.0004 C.2     1  LIG1        0.0145
     13 C          -5.1776    2.6970   -0.0005 C.2     1  LIG1       -0.0065
     14 C          -6.4770    3.3362   -0.0006 C.2     1  LIG1        0.1650
     15 C          -7.4141    2.3236   -0.0007 C.2     1  LIG1        0.2322
     16 O          -6.7786    1.0814   -0.0006 O.2     1  LIG1       -0.2832
     17 H          -4.0318    3.3111   -0.0004 H       1  LIG1        0.0662
     18 O          -6.6905    4.6186   -0.0007 O.2     1  LIG1       -0.5031
     19 H          -7.6358    4.7861   -0.0007 H       1  LIG1        0.2923
     20 C          -9.3668    1.0177   -0.0006 C.ar    1  LIG1        0.2241
     21 C          -8.7127    2.2633   -0.0007 C.ar    1  LIG1        0.0866
     22 C          -9.4887    3.4238   -0.0006 C.ar    1  LIG1       -0.0437
     23 C         -10.8793    3.3023   -0.0005 C.ar    1  LIG1       -0.0347
     24 C         -11.4407    2.0122   -0.0006 C.ar    1  LIG1        0.0766
     25 N         -10.7071    0.8821   -0.0005 N.ar    1  LIG1       -0.2124
     26 H          -9.0132    4.4148   -0.0017 H       1  LIG1        0.0627
     27 O          -8.6875   -0.0908   -0.0006 O.3     1  LIG1       -0.4919
     28 H          -7.7485    0.1088   -0.0006 H       1  LIG1        0.2938
     29 H         -11.6457    4.3524   -0.0006 H       1  LIG1        0.0639
     30 C         -13.5818    2.9711    0.0004 C.ar    1  LIG1        0.0338
     31 C         -14.9710    2.7396    0.0021 C.ar    1  LIG1       -0.0404
     32 C         -12.7301    1.8475   -0.0004 C.ar    1  LIG1        0.0211
     33 C         -15.4913    1.4474    0.0023 C.ar    1  LIG1       -0.0600
     34 H         -15.6461    3.5924    0.0029 H       1  LIG1        0.0636
     35 C         -13.2491    0.5572   -0.0002 C.ar    1  LIG1       -0.0508
     36 C         -14.6321    0.3479    0.0010 C.ar    1  LIG1       -0.0610
     37 H         -12.5717   -0.2929   -0.0008 H       1  LIG1        0.0625
     38 H         -16.7792    1.2702    0.0037 H       1  LIG1        0.0618
     39 N         -13.1562    4.1995    0.0000 N.pl3   1  LIG1       -0.3575
     40 H         -12.2756    4.2469   -0.4715 H       1  LIG1        0.1423
     41 H         -13.8185    4.7816   -0.4715 H       1  LIG1        0.1423
     42 H         -15.1115   -0.8605    0.0014 H       1  LIG1        0.0618
@<TRIPOS>BOND
     1    41    39    1
     2    40    39    1
     3    26    22    1
     4     7     3    1
     5    37    35    1
     6    21    15    1
     7    21    20   ar
     8    21    22   ar
     9    19    18    1
    10    18    14    1
    11    15    16    1
    12    15    14    2
    13    28    27    1
    14    27    20    1
    15    24    25   ar
    16    24    23   ar
    17    24    32    1
    18    14    13    1
    19    20    25   ar
    20    22    23   ar
    21    29    23    1
    22    13    12    2
    23    13    17    1
    24    10    11    3
    25    32    35   ar
    26    32    30   ar
    27    12     5    1
    28    11     4    1
    29     5     6   ar
    30     5     4   ar
    31    35    36   ar
    32     6     1   ar
    33     4     3   ar
    34    39    30    1
    35     1     2   ar
    36     1     9    1
    37     3     2   ar
    38     2     8    1
    39    30    31   ar
    40    36    42    1
    41    36    33   ar
    42    31    33   ar
    43    31    34    1
    44    33    38    1
