@<TRIPOS>MOLECULE
mol_data/noopt/geoms/mol2/6ad12fl-13ai-6hl.out
 50 53 0 0 0
SMALL
GASTEIGER

@<TRIPOS>ATOM
      1 C          -4.5775   -2.0270    0.0001 C.ar    1  LIG1        0.0285
      2 C          -3.1706   -2.0270    0.0001 C.ar    1  LIG1       -0.0423
      3 C          -2.5039   -0.8004    0.0001 C.ar    1  LIG1       -0.0407
      4 C          -3.2580    0.3743   -0.0001 C.ar    1  LIG1        0.0808
      5 C          -4.6612    0.2715   -0.0003 C.ar    1  LIG1        0.1270
      6 N          -5.3207   -0.9034   -0.0001 N.ar    1  LIG1       -0.2505
      7 H          -1.4054   -0.7607   -0.0009 H       1  LIG1        0.0631
      8 H          -2.5135   -3.1487    0.0004 H       1  LIG1        0.0633
      9 H          -5.2431   -3.1437    0.0002 H       1  LIG1        0.0830
     10 N          -2.1789    2.5700   -0.0005 N.1     1  LIG1       -0.1908
     11 C          -2.6846    1.5410   -0.0003 C.1     1  LIG1        0.1014
     12 C          -5.4065    1.3366   -0.0004 C.ar    1  LIG1        0.2001
     13 C          -5.1777    2.6969    0.0143 C.ar    1  LIG1        0.2077
     14 C          -6.4770    3.3362    0.0035 C.ar    1  LIG1        0.2098
     15 C          -7.4140    2.3237   -0.0171 C.ar    1  LIG1        0.1970
     16 O          -6.7784    1.0815   -0.0201 O.2     1  LIG1       -0.4442
     17 O          -4.0320    3.3109    0.0342 O.3     1  LIG1       -0.5008
     18 H          -4.1771    4.2599    0.0391 H       1  LIG1        0.2924
     19 O          -6.6906    4.6186    0.0120 O.3     1  LIG1       -0.4884
     20 C          -5.4393    5.3108    0.0151 C.3     1  LIG1        0.0791
     21 H          -5.6155    6.3662    0.0219 H       1  LIG1        0.0660
     22 H          -4.8821    5.0366    0.8865 H       1  LIG1        0.0660
     23 H          -4.8839    5.0476   -0.8608 H       1  LIG1        0.0660
     24 C          -8.7125    2.2634   -0.0340 C.ar    1  LIG1        0.0866
     25 C          -9.6413    3.2559   -0.0458 C.ar    1  LIG1       -0.0298
     26 C         -10.9313    2.6343   -0.0616 C.ar    1  LIG1       -0.0244
     27 C         -10.7340    1.2893   -0.0605 C.ar    1  LIG1        0.0533
     28 N          -9.3770    1.0578   -0.0431 N.ar    1  LIG1       -0.3514
     29 H          -8.9455    0.1624   -0.0386 H       1  LIG1        0.1660
     30 H          -9.3993    4.5332   -0.0418 H       1  LIG1        0.0643
     31 C         -12.0813    3.2410   -0.0750 C.3     1  LIG1       -0.0377
     32 H         -12.8090    2.6371    0.4258 H       1  LIG1        0.0278
     33 H         -12.3876    3.4025   -1.0874 H       1  LIG1        0.0278
     34 H         -11.9937    4.1826    0.4257 H       1  LIG1        0.0278
     35 C         -11.1450   -1.0235   -0.0775 C.ar    1  LIG1        0.1255
     36 C         -11.5901    0.3111   -0.0716 C.ar    1  LIG1        0.0415
     37 C         -12.9646    0.5555   -0.0776 C.ar    1  LIG1       -0.0060
     38 C         -13.8404   -0.5314   -0.0894 C.ar    1  LIG1        0.1389
     39 C         -13.2989   -1.8300   -0.0948 C.ar    1  LIG1        0.0713
     40 N         -11.9758   -2.0840   -0.0889 N.ar    1  LIG1       -0.2364
     41 H         -13.3498    1.5850   -0.0743 H       1  LIG1        0.0662
     42 H         -14.0735   -2.8740   -0.1057 H       1  LIG1        0.0868
     43 N          -9.8751   -1.3017   -0.0722 N.pl3   1  LIG1       -0.3426
     44 H          -9.7223   -2.1710   -0.5422 H       1  LIG1        0.1437
     45 H          -9.3729   -0.5758   -0.5423 H       1  LIG1        0.1437
     46 O         -15.1286   -0.3566   -0.0956 O.3     1  LIG1       -0.4936
     47 C         -15.4202    1.0434   -0.0979 C.3     1  LIG1        0.0789
     48 H         -16.4805    1.1869   -0.1032 H       1  LIG1        0.0660
     49 H         -15.0034    1.4960    0.7775 H       1  LIG1        0.0660
     50 H         -14.9949    1.4949   -0.9698 H       1  LIG1        0.0660
@<TRIPOS>BOND
     1    33    31    1
     2    50    47    1
     3    23    20    1
     4    45    43    1
     5    44    43    1
     6    42    39    1
     7    48    47    1
     8    47    46    1
     9    47    49    1
    10    46    38    1
    11    39    38   ar
    12    39    40   ar
    13    38    37   ar
    14    40    35   ar
    15    37    41    1
    16    37    36   ar
    17    35    43    1
    18    35    36   ar
    19    31    26    1
    20    31    34    1
    21    31    32    1
    22    36    27    1
    23    26    27   ar
    24    26    25   ar
    25    27    28   ar
    26    25    30    1
    27    25    24   ar
    28    28    29    1
    29    28    24   ar
    30    24    15    1
    31    16    15   ar
    32    16    12   ar
    33    15    14   ar
    34     7     3    1
    35    10    11    3
    36    12     5    1
    37    12    13   ar
    38     5     6   ar
    39     5     4   ar
    40    11     4    1
    41     6     1   ar
    42     4     3   ar
    43     3     2   ar
    44     2     1   ar
    45     2     8    1
    46     1     9    1
    47    14    19    1
    48    14    13   ar
    49    19    20    1
    50    13    17    1
    51    20    21    1
    52    20    22    1
    53    17    18    1
