@<TRIPOS>MOLECULE
mol_data/noopt/geoms/mol2/6ad12ei(170)4ld(350)12il(260).out
 53 54 0 0 0
SMALL
GASTEIGER

@<TRIPOS>ATOM
      1 C          -4.5775   -2.0270    0.0001 C.ar    1  LIG1        0.0283
      2 C          -3.1706   -2.0270    0.0001 C.ar    1  LIG1       -0.0430
      3 C          -2.5039   -0.8004    0.0001 C.ar    1  LIG1       -0.0496
      4 C          -3.2580    0.3743   -0.0001 C.ar    1  LIG1        0.0208
      5 C          -4.6612    0.2715   -0.0003 C.ar    1  LIG1        0.0814
      6 N          -5.3207   -0.9034   -0.0001 N.ar    1  LIG1       -0.2543
      7 H          -1.4054   -0.7607   -0.0009 H       1  LIG1        0.0625
      8 H          -2.5135   -3.1487    0.0004 H       1  LIG1        0.0633
      9 H          -5.2431   -3.1437    0.0002 H       1  LIG1        0.0830
     10 N          -2.1789    2.5700   -0.0005 N.2     1  LIG1       -0.1570
     11 C          -2.6846    1.5410   -0.0003 C.2     1  LIG1        0.0591
     12 C          -5.4065    1.3366   -0.0004 C.2     1  LIG1        0.0271
     13 C          -6.7537    1.5942    0.1472 C.2     1  LIG1        0.0411
     14 C          -6.9158    3.0292    0.0406 C.2     1  LIG1        0.0129
     15 C          -5.6563    3.5536   -0.1652 C.2     1  LIG1        0.1938
     16 O          -4.7089    2.5297   -0.1942 O.2     1  LIG1       -0.2868
     17 C          -7.7108    0.7368    0.3442 C.1     1  LIG1       -0.0686
     18 C          -8.5951   -0.0555    0.5262 C.1     1  LIG1       -0.1139
     19 H          -9.3829   -0.7612    0.6884 H       1  LIG1        0.1232
     20 C          -8.0423    3.6730    0.1260 C.3     1  LIG1       -0.0349
     21 H          -8.7560    3.0747    0.6528 H       1  LIG1        0.0279
     22 H          -8.4089    3.8825   -0.8572 H       1  LIG1        0.0279
     23 H          -7.8889    4.5917    0.6527 H       1  LIG1        0.0279
     24 C          -3.7972    4.9058   -0.6333 C.ar    1  LIG1        0.1905
     25 C          -3.3137    6.2174   -0.8043 C.ar    1  LIG1       -0.0023
     26 C          -5.1653    4.7455   -0.3329 C.ar    1  LIG1        0.0698
     27 C          -4.1537    7.3220   -0.6825 C.ar    1  LIG1        0.0386
     28 H          -2.2611    6.3637   -1.0363 H       1  LIG1        0.0663
     29 C          -6.0043    5.8479   -0.2113 C.ar    1  LIG1       -0.0291
     30 C          -5.5052    7.1430   -0.3851 C.ar    1  LIG1        0.0633
     31 H          -7.0556    5.6983    0.0210 H       1  LIG1        0.0639
     32 O          -2.9650    3.9150   -0.7596 O.3     1  LIG1       -0.2871
     33 C          -3.6917    2.6843   -0.8060 C.3     2  LIG2       -0.0531
     34 H          -3.0064    1.8691   -0.9101 H       1  LIG1        0.0855
     35 H          -4.2515    2.5663    0.0982 H       1  LIG1        0.0265
     36 H          -4.3609    2.6964   -1.6408 H       1  LIG1        0.0265
     37 N          -6.9901    9.0754   -0.1685 N.1     1  LIG1       -0.1908
     38 C          -6.2942    8.1698   -0.2700 C.1     1  LIG1        0.0999
     39 C          -3.6738    8.5190   -0.8468 C.ar    1  LIG1        0.1427
     40 C          -3.5326    9.3842   -1.9120 C.ar    1  LIG1        0.0370
     41 C          -2.9043   10.5814   -1.3934 C.ar    1  LIG1        0.1611
     42 C          -2.7031   10.3682   -0.0452 C.ar    1  LIG1        0.1343
     43 O          -3.1695    9.1037    0.3157 O.2     1  LIG1       -0.4589
     44 H          -2.1947   11.0539    0.9353 H       1  LIG1        0.1068
     45 C          -3.8853    9.1888   -3.1482 C.3     1  LIG1       -0.0326
     46 H          -3.9783    8.1386   -3.3308 H       1  LIG1        0.0280
     47 H          -3.1431    9.5999   -3.8001 H       1  LIG1        0.0280
     48 H          -4.8249    9.6672   -3.3308 H       1  LIG1        0.0280
     49 O          -2.5997   11.6382   -2.0866 O.3     1  LIG1       -0.4917
     50 C          -1.1926   11.6529   -2.3411 C.3     1  LIG1        0.0789
     51 H          -0.9424   12.5227   -2.9118 H       1  LIG1        0.0660
     52 H          -0.6622   11.6712   -1.4120 H       1  LIG1        0.0660
     53 H          -0.9202   10.7757   -2.8900 H       1  LIG1        0.0660
@<TRIPOS>BOND
     1    47    45    1
     2    46    45    1
     3    48    45    1
     4    45    40    1
     5    51    50    1
     6    53    50    1
     7    50    49    1
     8    50    52    1
     9    49    41    1
    10    40    41   ar
    11    40    39   ar
    12    36    33    1
    13    41    42   ar
    14    28    25    1
    15    34    11    1
    16    22    20    1
    17    39    27    1
    18    39    43   ar
    19    33    35    1
    20    25    27   ar
    21    25    24   ar
    22    32    24    1
    23    27    30   ar
    24    24    26   ar
    25    30    38    1
    26    30    29   ar
    27    26    29   ar
    28    26    15    1
    29    38    37    3
    30    29    31    1
    31    16    15    1
    32    15    14    2
    33    42    43   ar
    34    42    44    1
    35     7     3    1
    36    10    11    2
    37    12     5    1
    38    12    13    2
    39     5     4   ar
    40     5     6   ar
    41    11     4    1
    42     4     3   ar
    43     6     1   ar
    44     3     2   ar
    45     2     1   ar
    46     2     8    1
    47     1     9    1
    48    14    20    1
    49    14    13    1
    50    20    23    1
    51    20    21    1
    52    13    17    1
    53    17    18    3
    54    18    19    1
