@<TRIPOS>MOLECULE
mol_data/noopt/geoms/mol2/6ad6ad6ad.out
 32 34 0 0 0
SMALL
GASTEIGER

@<TRIPOS>ATOM
      1 C          -4.5775   -2.0270    0.0001 C.ar    1  LIG1        0.0283
      2 C          -3.1706   -2.0270    0.0001 C.ar    1  LIG1       -0.0423
      3 C          -2.5039   -0.8004    0.0001 C.ar    1  LIG1       -0.0408
      4 C          -3.2580    0.3743   -0.0001 C.ar    1  LIG1        0.0777
      5 C          -4.6612    0.2715   -0.0003 C.ar    1  LIG1        0.0898
      6 N          -5.3207   -0.9034   -0.0001 N.ar    1  LIG1       -0.2536
      7 H          -1.4054   -0.7607   -0.0009 H       1  LIG1        0.0631
      8 H          -2.5135   -3.1487    0.0004 H       1  LIG1        0.0633
      9 H          -5.2431   -3.1437    0.0002 H       1  LIG1        0.0830
     10 N          -2.1789    2.5700   -0.0005 N.1     1  LIG1       -0.1908
     11 C          -2.6846    1.5410   -0.0003 C.1     1  LIG1        0.1013
     12 C          -6.8088    1.2233   -0.0003 C.ar    1  LIG1        0.0375
     13 C          -5.4065    1.3366   -0.0004 C.ar    1  LIG1        0.0209
     14 C          -4.8408    2.6129   -0.0003 C.ar    1  LIG1       -0.0316
     15 C          -5.6871    3.7231   -0.0003 C.ar    1  LIG1        0.0783
     16 C          -7.0774    3.5076   -0.0004 C.ar    1  LIG1        0.0898
     17 N          -7.6401    2.2834   -0.0003 N.ar    1  LIG1       -0.2530
     18 H          -3.7491    2.7410   -0.0014 H       1  LIG1        0.0638
     19 H          -7.3823    0.0566   -0.0003 H       1  LIG1        0.0836
     20 N          -4.7883    5.9986   -0.0004 N.1     1  LIG1       -0.1908
     21 C          -5.2095    4.9322   -0.0004 C.1     1  LIG1        0.1013
     22 C          -9.2948    4.2833   -0.0001 C.ar    1  LIG1        0.0368
     23 C          -7.9061    4.5092   -0.0003 C.ar    1  LIG1        0.0209
     24 C          -7.4450    5.8270   -0.0001 C.ar    1  LIG1       -0.0322
     25 C          -8.3780    6.8653    0.0002 C.ar    1  LIG1        0.0704
     26 C          -9.7465    6.5385    0.0002 C.ar    1  LIG1        0.0449
     27 N         -10.2087    5.2730    0.0002 N.ar    1  LIG1       -0.2613
     28 H          -6.3672    6.0425   -0.0012 H       1  LIG1        0.0638
     29 H         -10.6531    7.4701    0.0005 H       1  LIG1        0.0842
     30 H          -9.7724    3.0742   -0.0002 H       1  LIG1        0.0836
     31 N          -7.6654    9.2059    0.0002 N.1     1  LIG1       -0.1908
     32 C          -7.9994    8.1090    0.0002 C.1     1  LIG1        0.1007
@<TRIPOS>BOND
     1    18    14    1
     2    28    24    1
     3     7     3    1
     4    10    11    3
     5    20    21    3
     6    13     5    1
     7    13    12   ar
     8    13    14   ar
     9    16    17   ar
    10    16    23    1
    11    16    15   ar
    12    21    15    1
    13    11     4    1
    14     5     6   ar
    15     5     4   ar
    16    12    19    1
    17    12    17   ar
    18    14    15   ar
    19    23    22   ar
    20    23    24   ar
    21    30    22    1
    22     6     1   ar
    23     4     3   ar
    24    22    27   ar
    25    24    25   ar
    26     1     2   ar
    27     1     9    1
    28     3     2   ar
    29     2     8    1
    30    27    26   ar
    31    26    25   ar
    32    26    29    1
    33    25    32    1
    34    32    31    3
