@<TRIPOS>MOLECULE
mol_data/noopt/geoms/mol2/6ad6ad-6ad-6ad-.out
 42 45 0 0 0
SMALL
GASTEIGER

@<TRIPOS>ATOM
      1 C          -4.5775   -2.0270    0.0001 C.ar    1  LIG1        0.0283
      2 C          -3.1706   -2.0270    0.0001 C.ar    1  LIG1       -0.0423
      3 C          -2.5039   -0.8004    0.0001 C.ar    1  LIG1       -0.0408
      4 C          -3.2580    0.3743   -0.0001 C.ar    1  LIG1        0.0777
      5 C          -4.6612    0.2715   -0.0003 C.ar    1  LIG1        0.0898
      6 N          -5.3207   -0.9034   -0.0001 N.ar    1  LIG1       -0.2536
      7 H          -1.4054   -0.7607   -0.0009 H       1  LIG1        0.0631
      8 H          -2.5135   -3.1487    0.0004 H       1  LIG1        0.0633
      9 H          -5.2431   -3.1437    0.0002 H       1  LIG1        0.0830
     10 N          -2.1789    2.5700   -0.0005 N.1     1  LIG1       -0.1908
     11 C          -2.6846    1.5410   -0.0003 C.1     1  LIG1        0.1013
     12 C          -4.8196    2.6153   -0.0003 C.ar    1  LIG1        0.0375
     13 C          -5.4065    1.3366   -0.0004 C.ar    1  LIG1        0.0209
     14 C          -6.7994    1.2424   -0.0003 C.ar    1  LIG1       -0.0316
     15 C          -7.5524    2.4178   -0.0003 C.ar    1  LIG1        0.0783
     16 C          -6.8736    3.6502   -0.0004 C.ar    1  LIG1        0.0898
     17 N          -5.5307    3.7594   -0.0003 N.ar    1  LIG1       -0.2530
     18 H          -7.2937    0.2606   -0.0014 H       1  LIG1        0.0638
     19 H          -3.5271    2.7543   -0.0003 H       1  LIG1        0.0836
     20 N          -9.9982    2.3530   -0.0005 N.1     1  LIG1       -0.1908
     21 C          -8.8520    2.3834   -0.0004 C.1     1  LIG1        0.1013
     22 C          -6.8427    5.9991   -0.0000 C.ar    1  LIG1        0.0375
     23 C          -7.5307    4.7719   -0.0003 C.ar    1  LIG1        0.0209
     24 C          -8.9267    4.7902   -0.0001 C.ar    1  LIG1       -0.0316
     25 C          -9.5826    6.0224    0.0002 C.ar    1  LIG1        0.0783
     26 C          -8.8067    7.1961    0.0002 C.ar    1  LIG1        0.0898
     27 N          -7.4594    7.1968    0.0002 N.ar    1  LIG1       -0.2530
     28 H          -9.4985    3.8514   -0.0012 H       1  LIG1        0.0638
     29 H          -5.5432    6.0336   -0.0001 H       1  LIG1        0.0836
     30 N         -12.0256    6.1548    0.0002 N.1     1  LIG1       -0.1908
     31 C         -10.8807    6.0928    0.0002 C.1     1  LIG1        0.1013
     32 C          -8.5867    9.5349    0.0008 C.ar    1  LIG1        0.0368
     33 C          -9.3714    8.3671    0.0005 C.ar    1  LIG1        0.0209
     34 C         -10.7613    8.4977    0.0008 C.ar    1  LIG1       -0.0322
     35 C         -11.3158    9.7788    0.0012 C.ar    1  LIG1        0.0704
     36 C         -10.4479   10.8862    0.0013 C.ar    1  LIG1        0.0449
     37 N          -9.1049   10.7784    0.0012 N.ar    1  LIG1       -0.2613
     38 H         -11.4069    7.6081   -0.0005 H       1  LIG1        0.0638
     39 H         -10.9164   12.0988    0.0018 H       1  LIG1        0.0842
     40 H          -7.2886    9.4646    0.0006 H       1  LIG1        0.0836
     41 N         -13.7402   10.1076    0.0015 N.1     1  LIG1       -0.1908
     42 C         -12.6040    9.9535    0.0014 C.1     1  LIG1        0.1007
@<TRIPOS>BOND
     1    18    14    1
     2    28    24    1
     3     7     3    1
     4    20    21    3
     5    10    11    3
     6    38    34    1
     7    13    14   ar
     8    13     5    1
     9    13    12   ar
    10    21    15    1
    11    16    15   ar
    12    16    23    1
    13    16    17   ar
    14    14    15   ar
    15     5     6   ar
    16     5     4   ar
    17    11     4    1
    18    23    24   ar
    19    23    22   ar
    20    12    17   ar
    21    12    19    1
    22    29    22    1
    23     6     1   ar
    24     4     3   ar
    25    24    25   ar
    26    22    27   ar
    27     1     2   ar
    28     1     9    1
    29     3     2   ar
    30     2     8    1
    31    25    26   ar
    32    25    31    1
    33    26    27   ar
    34    26    33    1
    35    31    30    3
    36    33    34   ar
    37    33    32   ar
    38    40    32    1
    39    34    35   ar
    40    32    37   ar
    41    35    36   ar
    42    35    42    1
    43    37    36   ar
    44    36    39    1
    45    42    41    3
