@<TRIPOS>MOLECULE
mol_data/noopt/geoms/mol2/6ad6ad-6ad.out
 32 34 0 0 0
SMALL
GASTEIGER

@<TRIPOS>ATOM
      1 C          -4.5775   -2.0270    0.0001 C.ar    1  LIG1        0.0283
      2 C          -3.1706   -2.0270    0.0001 C.ar    1  LIG1       -0.0423
      3 C          -2.5039   -0.8004    0.0001 C.ar    1  LIG1       -0.0408
      4 C          -3.2580    0.3743   -0.0001 C.ar    1  LIG1        0.0777
      5 C          -4.6612    0.2715   -0.0003 C.ar    1  LIG1        0.0898
      6 N          -5.3207   -0.9034   -0.0001 N.ar    1  LIG1       -0.2536
      7 H          -1.4054   -0.7607   -0.0009 H       1  LIG1        0.0631
      8 H          -2.5135   -3.1487    0.0004 H       1  LIG1        0.0633
      9 H          -5.2431   -3.1437    0.0002 H       1  LIG1        0.0830
     10 N          -2.1789    2.5700   -0.0005 N.1     1  LIG1       -0.1908
     11 C          -2.6846    1.5410   -0.0003 C.1     1  LIG1        0.1013
     12 C          -4.8196    2.6153   -0.0003 C.ar    1  LIG1        0.0375
     13 C          -5.4065    1.3366   -0.0004 C.ar    1  LIG1        0.0209
     14 C          -6.7994    1.2424   -0.0003 C.ar    1  LIG1       -0.0316
     15 C          -7.5524    2.4178   -0.0003 C.ar    1  LIG1        0.0783
     16 C          -6.8736    3.6502   -0.0004 C.ar    1  LIG1        0.0898
     17 N          -5.5307    3.7594   -0.0003 N.ar    1  LIG1       -0.2530
     18 H          -7.2937    0.2606   -0.0014 H       1  LIG1        0.0638
     19 H          -3.5271    2.7543   -0.0003 H       1  LIG1        0.0836
     20 N          -9.9982    2.3530   -0.0005 N.1     1  LIG1       -0.1908
     21 C          -8.8520    2.3834   -0.0004 C.1     1  LIG1        0.1013
     22 C          -8.9376    4.7719   -0.0001 C.ar    1  LIG1        0.0368
     23 C          -7.5307    4.7719   -0.0003 C.ar    1  LIG1        0.0209
     24 C          -6.8640    5.9985   -0.0001 C.ar    1  LIG1       -0.0322
     25 C          -7.6181    7.1732    0.0002 C.ar    1  LIG1        0.0704
     26 C          -9.0213    7.0704    0.0002 C.ar    1  LIG1        0.0449
     27 N          -9.6808    5.8955    0.0002 N.ar    1  LIG1       -0.2613
     28 H          -5.7655    6.0382   -0.0012 H       1  LIG1        0.0638
     29 H          -9.7666    8.1355    0.0005 H       1  LIG1        0.0842
     30 H          -9.6032    3.6552   -0.0002 H       1  LIG1        0.0836
     31 N          -6.5390    9.3689    0.0002 N.1     1  LIG1       -0.1908
     32 C          -7.0447    8.3399    0.0002 C.1     1  LIG1        0.1007
@<TRIPOS>BOND
     1    18    14    1
     2    28    24    1
     3     7     3    1
     4    20    21    3
     5    10    11    3
     6    13    14   ar
     7    13     5    1
     8    13    12   ar
     9    21    15    1
    10    16    15   ar
    11    16    23    1
    12    16    17   ar
    13    14    15   ar
    14    11     4    1
    15     5     6   ar
    16     5     4   ar
    17    23    22   ar
    18    23    24   ar
    19    12    17   ar
    20    12    19    1
    21    30    22    1
    22     6     1   ar
    23     4     3   ar
    24    22    27   ar
    25    24    25   ar
    26     1     2   ar
    27     1     9    1
    28     3     2   ar
    29     2     8    1
    30    27    26   ar
    31    26    25   ar
    32    26    29    1
    33    25    32    1
    34    32    31    3
