@<TRIPOS>MOLECULE
mol_data/noopt/geoms/mol2/6ad6ad-.out
 22 23 0 0 0
SMALL
GASTEIGER

@<TRIPOS>ATOM
      1 C          -4.5775   -2.0270    0.0001 C.ar    1  LIG1        0.0283
      2 C          -3.1706   -2.0270    0.0001 C.ar    1  LIG1       -0.0423
      3 C          -2.5039   -0.8004    0.0001 C.ar    1  LIG1       -0.0408
      4 C          -3.2580    0.3743   -0.0001 C.ar    1  LIG1        0.0777
      5 C          -4.6612    0.2715   -0.0003 C.ar    1  LIG1        0.0898
      6 N          -5.3207   -0.9034   -0.0001 N.ar    1  LIG1       -0.2536
      7 H          -1.4054   -0.7607   -0.0009 H       1  LIG1        0.0631
      8 H          -2.5135   -3.1487    0.0004 H       1  LIG1        0.0633
      9 H          -5.2431   -3.1437    0.0002 H       1  LIG1        0.0830
     10 N          -2.1789    2.5700   -0.0005 N.1     1  LIG1       -0.1908
     11 C          -2.6846    1.5410   -0.0003 C.1     1  LIG1        0.1013
     12 C          -4.8196    2.6153   -0.0003 C.ar    1  LIG1        0.0368
     13 C          -5.4065    1.3366   -0.0004 C.ar    1  LIG1        0.0209
     14 C          -6.7994    1.2424   -0.0003 C.ar    1  LIG1       -0.0322
     15 C          -7.5524    2.4178   -0.0003 C.ar    1  LIG1        0.0704
     16 C          -6.8736    3.6502   -0.0004 C.ar    1  LIG1        0.0449
     17 N          -5.5307    3.7594   -0.0003 N.ar    1  LIG1       -0.2613
     18 H          -7.2937    0.2606   -0.0014 H       1  LIG1        0.0638
     19 H          -7.5307    4.7719   -0.0003 H       1  LIG1        0.0842
     20 H          -3.5271    2.7543   -0.0003 H       1  LIG1        0.0836
     21 N          -9.9982    2.3530   -0.0005 N.1     1  LIG1       -0.1908
     22 C          -8.8520    2.3834   -0.0004 C.1     1  LIG1        0.1007
@<TRIPOS>BOND
     1    18    14    1
     2     7     3    1
     3    21    22    3
     4    10    11    3
     5    13    14   ar
     6    13     5    1
     7    13    12   ar
     8    22    15    1
     9    16    15   ar
    10    16    19    1
    11    16    17   ar
    12    14    15   ar
    13     5     6   ar
    14     5     4   ar
    15    11     4    1
    16    12    17   ar
    17    12    20    1
    18     6     1   ar
    19     4     3   ar
    20     1     2   ar
    21     1     9    1
    22     3     2   ar
    23     2     8    1
