@<TRIPOS>MOLECULE
mol_data/noopt/geoms/mol2/6ad6ad-4ad6ad.out
 43 46 0 0 0
SMALL
GASTEIGER

@<TRIPOS>ATOM
      1 C          -4.5775   -2.0270    0.0001 C.ar    1  LIG1        0.0283
      2 C          -3.1706   -2.0270    0.0001 C.ar    1  LIG1       -0.0423
      3 C          -2.5039   -0.8004    0.0001 C.ar    1  LIG1       -0.0408
      4 C          -3.2580    0.3743   -0.0001 C.ar    1  LIG1        0.0777
      5 C          -4.6612    0.2715   -0.0003 C.ar    1  LIG1        0.0898
      6 N          -5.3207   -0.9034   -0.0001 N.ar    1  LIG1       -0.2536
      7 H          -1.4054   -0.7607   -0.0009 H       1  LIG1        0.0631
      8 H          -2.5135   -3.1487    0.0004 H       1  LIG1        0.0633
      9 H          -5.2431   -3.1437    0.0002 H       1  LIG1        0.0830
     10 N          -2.1789    2.5700   -0.0005 N.1     1  LIG1       -0.1908
     11 C          -2.6846    1.5410   -0.0003 C.1     1  LIG1        0.1013
     12 C          -4.8196    2.6153   -0.0003 C.ar    1  LIG1        0.0375
     13 C          -5.4065    1.3366   -0.0004 C.ar    1  LIG1        0.0209
     14 C          -6.7994    1.2424   -0.0003 C.ar    1  LIG1       -0.0316
     15 C          -7.5524    2.4178   -0.0003 C.ar    1  LIG1        0.0783
     16 C          -6.8736    3.6502   -0.0004 C.ar    1  LIG1        0.0883
     17 N          -5.5307    3.7594   -0.0003 N.ar    1  LIG1       -0.2530
     18 H          -7.2937    0.2606   -0.0014 H       1  LIG1        0.0638
     19 H          -3.5271    2.7543   -0.0003 H       1  LIG1        0.0836
     20 N          -9.9982    2.3530   -0.0005 N.1     1  LIG1       -0.1908
     21 C          -8.8520    2.3834   -0.0004 C.1     1  LIG1        0.1013
     22 C          -6.8310    5.9958    0.0005 C.ar    1  LIG1       -0.0519
     23 C          -7.5886    7.1830    0.0022 C.ar    1  LIG1       -0.0521
     24 C          -7.5307    4.7718   -0.0003 C.ar    1  LIG1        0.0029
     25 C          -8.9814    7.1551    0.0023 C.ar    1  LIG1        0.0010
     26 H          -7.0688    8.1385    0.0030 H       1  LIG1        0.0624
     27 C          -8.9211    4.7434   -0.0001 C.ar    1  LIG1       -0.0345
     28 C          -9.6560    5.9336    0.0011 C.ar    1  LIG1        0.0601
     29 H          -9.4376    3.7869   -0.0006 H       1  LIG1        0.0637
     30 H          -5.5341    6.0859    0.0002 H       1  LIG1        0.0624
     31 N         -12.1018    5.8718    0.0017 N.1     1  LIG1       -0.1908
     32 C         -10.9556    5.9008    0.0014 C.1     1  LIG1        0.0998
     33 C         -11.0562    8.2567    0.0047 C.ar    1  LIG1        0.0354
     34 C          -9.6493    8.2703    0.0037 C.ar    1  LIG1        0.0027
     35 C          -8.9946    9.5034    0.0047 C.ar    1  LIG1       -0.0337
     36 C          -9.7600   10.6707    0.0063 C.ar    1  LIG1        0.0704
     37 C         -11.1621   10.5543    0.0069 C.ar    1  LIG1        0.0449
     38 N         -11.8102    9.3730    0.0062 N.ar    1  LIG1       -0.2614
     39 H          -7.8965    9.5537    0.0030 H       1  LIG1        0.0637
     40 H         -11.9177   11.6121    0.0085 H       1  LIG1        0.0842
     41 H         -11.7109    7.1336    0.0040 H       1  LIG1        0.0836
     42 N          -8.7022   12.8768    0.0077 N.1     1  LIG1       -0.1908
     43 C          -9.1980   11.8429    0.0071 C.1     1  LIG1        0.1007
@<TRIPOS>BOND
     1    18    14    1
     2     7     3    1
     3    29    27    1
     4    20    21    3
     5    10    11    3
     6    13    14   ar
     7    13     5    1
     8    13    12   ar
     9    21    15    1
    10    16    15   ar
    11    16    24    1
    12    16    17   ar
    13    14    15   ar
    14     5     6   ar
    15     5     4   ar
    16    11     4    1
    17    24    27   ar
    18    24    22   ar
    19    12    17   ar
    20    12    19    1
    21     6     1   ar
    22     4     3   ar
    23    27    28   ar
    24     1     2   ar
    25     1     9    1
    26     3     2   ar
    27     2     8    1
    28    30    22    1
    29    22    23   ar
    30    28    32    1
    31    28    25   ar
    32    32    31    3
    33    23    25   ar
    34    23    26    1
    35    25    34    1
    36    39    35    1
    37    34    33   ar
    38    34    35   ar
    39    41    33    1
    40    33    38   ar
    41    35    36   ar
    42    38    37   ar
    43    36    37   ar
    44    36    43    1
    45    37    40    1
    46    43    42    3
