@<TRIPOS>MOLECULE
mol_data/noopt/geoms/mol2/6ad6he(210)4di(220)12hd(110).out
 49 53 0 0 0
SMALL
GASTEIGER

@<TRIPOS>ATOM
      1 C          -4.5775   -2.0270    0.0001 C.ar    1  LIG1        0.0283
      2 C          -3.1706   -2.0270    0.0001 C.ar    1  LIG1       -0.0423
      3 C          -2.5039   -0.8004    0.0001 C.ar    1  LIG1       -0.0408
      4 C          -3.2580    0.3743   -0.0001 C.ar    1  LIG1        0.0775
      5 C          -4.6612    0.2715   -0.0003 C.ar    1  LIG1        0.0881
      6 N          -5.3207   -0.9034   -0.0001 N.ar    1  LIG1       -0.2539
      7 H          -1.4054   -0.7607   -0.0009 H       1  LIG1        0.0631
      8 H          -2.5135   -3.1487    0.0004 H       1  LIG1        0.0633
      9 H          -5.2431   -3.1437    0.0002 H       1  LIG1        0.0830
     10 N          -2.1789    2.5700   -0.0005 N.1     1  LIG1       -0.1908
     11 C          -2.6846    1.5410   -0.0003 C.1     1  LIG1        0.1013
     12 C          -4.9526    2.5222    0.6059 C.3     1  LIG1        0.1802
     13 C          -5.4065    1.3366   -0.0004 C.2     1  LIG1        0.0258
     14 C          -6.6683    1.3341   -0.5978 C.2     1  LIG1       -0.0359
     15 C          -7.4275    2.5051   -0.5696 C.2     1  LIG1        0.0443
     16 C          -6.8872    3.6407    0.0613 C.2     1  LIG1        0.0834
     17 N          -5.6717    3.6608    0.6424 N.2     1  LIG1       -0.2511
     18 H          -7.0570    0.4262   -1.0804 H       1  LIG1        0.0635
     19 N          -3.7849    2.5740    1.1750 N.3     1  LIG1       -0.2998
     20 H          -3.2432    1.7807    0.8971 H       1  LIG1        0.1208
     21 H          -3.3155    3.4121    0.8970 H       1  LIG1        0.1208
     22 C          -8.6082    2.5539   -1.1115 C.1     1  LIG1       -0.0932
     23 C          -9.6991    2.5989   -1.6122 C.2     1  LIG1        0.0551
     24 H         -10.6709    2.6389   -2.0582 H       1  LIG1        0.0888
     25 C          -8.7356    4.9015   -0.6442 C.ar    1  LIG1       -0.0074
     26 C          -9.4225    6.1276   -0.5546 C.ar    1  LIG1       -0.0447
     27 C          -7.5556    4.7544    0.1134 C.ar    1  LIG1        0.0069
     28 C          -8.9573    7.1627    0.2534 C.ar    1  LIG1        0.0224
     29 H         -10.3351    6.2624   -1.1309 H       1  LIG1        0.0628
     30 C          -7.0908    5.7874    0.9202 C.ar    1  LIG1       -0.0486
     31 C          -7.7876    6.9979    0.9962 C.ar    1  LIG1       -0.0391
     32 H          -6.1784    5.6496    1.4947 H       1  LIG1        0.0627
     33 N          -9.6453    3.1539   -2.0948 N.pl3   1  LIG1       -0.2336
     34 C          -9.2190    3.9729   -1.4150 C.3     1  LIG1        0.1379
     35 C          -7.3481    7.9603    1.7521 C.3     1  LIG1       -0.0390
     36 H          -8.1440    8.3204    2.3699 H       1  LIG1        0.0278
     37 H          -6.9839    8.7578    1.1387 H       1  LIG1        0.0278
     38 H          -6.5546    7.5946    2.3698 H       1  LIG1        0.0278
     39 C          -9.6167    8.2815    0.3126 C.ar    1  LIG1        0.1569
     40 C         -10.4146    8.9044    1.2498 C.ar    1  LIG1        0.0886
     41 C         -10.8421   10.1575    0.6635 C.ar    1  LIG1        0.1106
     42 C         -10.2768   10.2174   -0.5936 C.ar    1  LIG1        0.1118
     43 O          -9.5165    9.0721   -0.8331 O.2     1  LIG1       -0.4597
     44 H         -10.2896   11.0694   -1.5754 H       1  LIG1        0.1043
     45 N         -10.7358    8.4738    2.4336 N.pl3   1  LIG1       -0.3540
     46 H         -11.7293    8.5076    2.5423 H       1  LIG1        0.1425
     47 H         -10.4205    7.5311    2.5423 H       1  LIG1        0.1425
     48 N         -12.2879   11.8140    1.7367 N.1     1  LIG1       -0.1907
     49 C         -11.6103   11.0377    1.2338 C.1     1  LIG1        0.1042
@<TRIPOS>BOND
     1    33    23    1
     2    33    34    1
     3    24    23    1
     4    23    22    2
     5    44    42    1
     6    34    25    1
     7    29    26    1
     8    22    15    2
     9    18    14    1
    10    43    42   ar
    11    43    39   ar
    12    25    26   ar
    13    25    27   ar
    14    14    15    1
    15    14    13    2
    16    42    41   ar
    17    15    16    1
    18    26    28   ar
    19     7     3    1
    20    10    11    3
    21    13     5    1
    22    13    12    1
    23    11     4    1
    24     5     6   ar
    25     5     4   ar
    26     6     1   ar
    27     4     3   ar
    28     1     2   ar
    29     1     9    1
    30     3     2   ar
    31     2     8    1
    32    16    27    1
    33    16    17    2
    34    27    30   ar
    35    28    39    1
    36    28    31   ar
    37    39    40   ar
    38    12    17    1
    39    12    19    1
    40    41    49    1
    41    41    40   ar
    42    21    19    1
    43    20    19    1
    44    30    31   ar
    45    30    32    1
    46    31    35    1
    47    37    35    1
    48    49    48    3
    49    40    45    1
    50    35    38    1
    51    35    36    1
    52    45    46    1
    53    45    47    1
