@<TRIPOS>MOLECULE
mol_data/noopt/geoms/mol2/6ad6ad.out
 22 23 0 0 0
SMALL
GASTEIGER

@<TRIPOS>ATOM
      1 C          -4.5775   -2.0270    0.0001 C.ar    1  LIG1        0.0283
      2 C          -3.1706   -2.0270    0.0001 C.ar    1  LIG1       -0.0423
      3 C          -2.5039   -0.8004    0.0001 C.ar    1  LIG1       -0.0408
      4 C          -3.2580    0.3743   -0.0001 C.ar    1  LIG1        0.0777
      5 C          -4.6612    0.2715   -0.0003 C.ar    1  LIG1        0.0898
      6 N          -5.3207   -0.9034   -0.0001 N.ar    1  LIG1       -0.2536
      7 H          -1.4054   -0.7607   -0.0009 H       1  LIG1        0.0631
      8 H          -2.5135   -3.1487    0.0004 H       1  LIG1        0.0633
      9 H          -5.2431   -3.1437    0.0002 H       1  LIG1        0.0830
     10 N          -2.1789    2.5700   -0.0005 N.1     1  LIG1       -0.1908
     11 C          -2.6846    1.5410   -0.0003 C.1     1  LIG1        0.1013
     12 C          -6.8088    1.2233   -0.0003 C.ar    1  LIG1        0.0368
     13 C          -5.4065    1.3366   -0.0004 C.ar    1  LIG1        0.0209
     14 C          -4.8408    2.6129   -0.0003 C.ar    1  LIG1       -0.0322
     15 C          -5.6871    3.7231   -0.0003 C.ar    1  LIG1        0.0704
     16 C          -7.0774    3.5076   -0.0004 C.ar    1  LIG1        0.0449
     17 N          -7.6401    2.2834   -0.0003 N.ar    1  LIG1       -0.2613
     18 H          -3.7491    2.7410   -0.0014 H       1  LIG1        0.0638
     19 H          -7.9061    4.5092   -0.0003 H       1  LIG1        0.0842
     20 H          -7.3823    0.0566   -0.0003 H       1  LIG1        0.0836
     21 N          -4.7883    5.9986   -0.0004 N.1     1  LIG1       -0.1908
     22 C          -5.2095    4.9322   -0.0004 C.1     1  LIG1        0.1007
@<TRIPOS>BOND
     1    18    14    1
     2     7     3    1
     3    10    11    3
     4    21    22    3
     5    13     5    1
     6    13    12   ar
     7    13    14   ar
     8    16    17   ar
     9    16    19    1
    10    16    15   ar
    11    22    15    1
    12     5     6   ar
    13     5     4   ar
    14    11     4    1
    15    12    20    1
    16    12    17   ar
    17    14    15   ar
    18     6     1   ar
    19     4     3   ar
    20     1     2   ar
    21     1     9    1
    22     3     2   ar
    23     2     8    1
