@<TRIPOS>MOLECULE
mol_data/noopt/geoms/mol2/6ad6ad6ad-6ad.out
 42 45 0 0 0
SMALL
GASTEIGER

@<TRIPOS>ATOM
      1 C          -4.5775   -2.0270    0.0001 C.ar    1  LIG1        0.0283
      2 C          -3.1706   -2.0270    0.0001 C.ar    1  LIG1       -0.0423
      3 C          -2.5039   -0.8004    0.0001 C.ar    1  LIG1       -0.0408
      4 C          -3.2580    0.3743   -0.0001 C.ar    1  LIG1        0.0777
      5 C          -4.6612    0.2715   -0.0003 C.ar    1  LIG1        0.0898
      6 N          -5.3207   -0.9034   -0.0001 N.ar    1  LIG1       -0.2536
      7 H          -1.4054   -0.7607   -0.0009 H       1  LIG1        0.0631
      8 H          -2.5135   -3.1487    0.0004 H       1  LIG1        0.0633
      9 H          -5.2431   -3.1437    0.0002 H       1  LIG1        0.0830
     10 N          -2.1789    2.5700   -0.0005 N.1     1  LIG1       -0.1908
     11 C          -2.6846    1.5410   -0.0003 C.1     1  LIG1        0.1013
     12 C          -6.8088    1.2233   -0.0003 C.ar    1  LIG1        0.0375
     13 C          -5.4065    1.3366   -0.0004 C.ar    1  LIG1        0.0209
     14 C          -4.8408    2.6129   -0.0003 C.ar    1  LIG1       -0.0316
     15 C          -5.6871    3.7231   -0.0003 C.ar    1  LIG1        0.0783
     16 C          -7.0774    3.5076   -0.0004 C.ar    1  LIG1        0.0898
     17 N          -7.6401    2.2834   -0.0003 N.ar    1  LIG1       -0.2530
     18 H          -3.7491    2.7410   -0.0014 H       1  LIG1        0.0638
     19 H          -7.3823    0.0566   -0.0003 H       1  LIG1        0.0836
     20 N          -4.7883    5.9986   -0.0004 N.1     1  LIG1       -0.1908
     21 C          -5.2095    4.9322   -0.0004 C.1     1  LIG1        0.1013
     22 C          -7.4241    5.8310   -0.0000 C.ar    1  LIG1        0.0375
     23 C          -7.9061    4.5092   -0.0003 C.ar    1  LIG1        0.0209
     24 C          -9.2869    4.3031   -0.0001 C.ar    1  LIG1       -0.0316
     25 C         -10.1321    5.4140    0.0002 C.ar    1  LIG1        0.0783
     26 C          -9.5548    6.6971    0.0002 C.ar    1  LIG1        0.0898
     27 N          -8.2251    6.9141    0.0002 N.ar    1  LIG1       -0.2530
     28 H          -9.7005    3.2847   -0.0012 H       1  LIG1        0.0638
     29 H          -6.1470    6.0737   -0.0001 H       1  LIG1        0.0836
     30 N         -12.5647    5.1524    0.0002 N.1     1  LIG1       -0.1908
     31 C         -11.4247    5.2750    0.0002 C.1     1  LIG1        0.1013
     32 C         -11.7025    7.6489    0.0008 C.ar    1  LIG1        0.0368
     33 C         -10.3001    7.7622    0.0005 C.ar    1  LIG1        0.0209
     34 C          -9.7344    9.0385    0.0008 C.ar    1  LIG1       -0.0322
     35 C         -10.5807   10.1487    0.0012 C.ar    1  LIG1        0.0704
     36 C         -11.9710    9.9332    0.0013 C.ar    1  LIG1        0.0449
     37 N         -12.5338    8.7090    0.0012 N.ar    1  LIG1       -0.2613
     38 H          -8.6427    9.1666   -0.0004 H       1  LIG1        0.0638
     39 H         -12.7997   10.9348    0.0018 H       1  LIG1        0.0842
     40 H         -12.2760    6.4822    0.0006 H       1  LIG1        0.0836
     41 N          -9.6819   12.4242    0.0015 N.1     1  LIG1       -0.1908
     42 C         -10.1031   11.3578    0.0014 C.1     1  LIG1        0.1007
@<TRIPOS>BOND
     1    18    14    1
     2    28    24    1
     3     7     3    1
     4    10    11    3
     5    38    34    1
     6    20    21    3
     7    13     5    1
     8    13    12   ar
     9    13    14   ar
    10    16    17   ar
    11    16    23    1
    12    16    15   ar
    13    21    15    1
    14     5     6   ar
    15     5     4   ar
    16    11     4    1
    17    12    19    1
    18    12    17   ar
    19    14    15   ar
    20    23    24   ar
    21    23    22   ar
    22    29    22    1
    23     6     1   ar
    24     4     3   ar
    25    24    25   ar
    26    22    27   ar
    27     1     2   ar
    28     1     9    1
    29     3     2   ar
    30     2     8    1
    31    25    31    1
    32    25    26   ar
    33    31    30    3
    34    26    27   ar
    35    26    33    1
    36    33    32   ar
    37    33    34   ar
    38    40    32    1
    39    32    37   ar
    40    34    35   ar
    41    37    36   ar
    42    35    36   ar
    43    35    42    1
    44    36    39    1
    45    42    41    3
