@<TRIPOS>MOLECULE
mol_data/noopt/geoms/mol2/6ad6lf(230)12df(60)6fl(200).out
 49 52 0 0 0
SMALL
GASTEIGER

@<TRIPOS>ATOM
      1 C          -4.5775   -2.0270    0.0001 C.ar    1  LIG1        0.0283
      2 C          -3.1706   -2.0270    0.0001 C.ar    1  LIG1       -0.0423
      3 C          -2.5039   -0.8004    0.0001 C.ar    1  LIG1       -0.0408
      4 C          -3.2580    0.3743   -0.0001 C.ar    1  LIG1        0.0778
      5 C          -4.6612    0.2715   -0.0003 C.ar    1  LIG1        0.0935
      6 N          -5.3207   -0.9034   -0.0001 N.ar    1  LIG1       -0.2535
      7 H          -1.4054   -0.7607   -0.0009 H       1  LIG1        0.0631
      8 H          -2.5135   -3.1487    0.0004 H       1  LIG1        0.0633
      9 H          -5.2431   -3.1437    0.0002 H       1  LIG1        0.0830
     10 N          -2.1789    2.5700   -0.0005 N.1     1  LIG1       -0.1908
     11 C          -2.6846    1.5410   -0.0003 C.1     1  LIG1        0.1013
     12 C          -5.1745    2.3670    0.9290 C.ar    1  LIG1        0.2248
     13 C          -5.4065    1.3366   -0.0004 C.ar    1  LIG1        0.0666
     14 C          -6.4498    1.4870   -0.9158 C.ar    1  LIG1       -0.0036
     15 C          -7.2194    2.6508   -0.8724 C.ar    1  LIG1        0.1467
     16 C          -6.9099    3.6248    0.0945 C.ar    1  LIG1        0.1524
     17 N          -5.9070    3.4962    0.9850 N.ar    1  LIG1       -0.2055
     18 H          -6.6618    0.7027   -1.6562 H       1  LIG1        0.0663
     19 O          -4.2149    2.2731    1.8011 O.3     1  LIG1       -0.4792
     20 C          -3.9939    0.8971    2.1212 C.3     1  LIG1        0.0804
     21 H          -3.2039    0.8203    2.8389 H       1  LIG1        0.0660
     22 H          -4.8893    0.4777    2.5302 H       1  LIG1        0.0660
     23 H          -3.7230    0.3636    1.2342 H       1  LIG1        0.0660
     24 O          -8.2019    2.8382   -1.7029 O.3     1  LIG1       -0.5045
     25 H          -8.6136    1.9954   -1.9076 H       1  LIG1        0.2922
     26 C          -7.5975    4.7252    0.1744 C.ar    1  LIG1        0.1785
     27 C          -7.6398    5.7976    1.0412 C.ar    1  LIG1        0.1410
     28 C          -8.6556    6.6983    0.5374 C.ar    1  LIG1        0.1813
     29 C          -9.1668    6.1163   -0.6043 C.ar    1  LIG1        0.1835
     30 O          -8.5303    4.8990   -0.8490 O.2     1  LIG1       -0.4479
     31 N          -6.2869    6.1552    3.0481 N.1     1  LIG1       -0.1906
     32 C          -6.9209    5.9876    2.1076 C.1     1  LIG1        0.1067
     33 O          -8.9993    7.8302    1.0765 O.3     1  LIG1       -0.5023
     34 H          -9.9500    7.8463    1.2094 H       1  LIG1        0.2923
     35 C         -10.4639    7.7741   -1.6472 C.ar    1  LIG1        0.2236
     36 C         -10.0770    6.4322   -1.4771 C.ar    1  LIG1        0.0857
     37 C         -10.6912    5.4563   -2.2642 C.ar    1  LIG1       -0.0025
     38 C         -11.6625    5.8500   -3.1863 C.ar    1  LIG1        0.1390
     39 C         -11.9817    7.2169   -3.2830 C.ar    1  LIG1        0.0730
     40 N         -11.3990    8.1716   -2.5317 N.ar    1  LIG1       -0.2172
     41 H         -10.4156    4.3975   -2.1588 H       1  LIG1        0.0663
     42 H         -12.8793    7.6326   -4.1265 H       1  LIG1        0.0868
     43 O          -9.9208    8.7184   -0.9377 O.3     1  LIG1       -0.4919
     44 H         -10.5714    9.4023   -0.7628 H       1  LIG1        0.2937
     45 O         -12.2636    4.9797   -3.9422 O.3     1  LIG1       -0.4936
     46 C         -13.5934    5.4263   -4.2198 C.3     1  LIG1        0.0789
     47 H         -14.0877    4.7098   -4.8421 H       1  LIG1        0.0660
     48 H         -14.1326    5.5335   -3.3017 H       1  LIG1        0.0660
     49 H         -13.5551    6.3697   -4.7231 H       1  LIG1        0.0660
@<TRIPOS>BOND
     1    47    46    1
     2    49    46    1
     3    46    45    1
     4    46    48    1
     5    42    39    1
     6    45    38    1
     7    39    38   ar
     8    39    40   ar
     9    38    37   ar
    10    40    35   ar
    11    37    41    1
    12    37    36   ar
    13    25    24    1
    14    24    15    1
    15    18    14    1
    16    35    36   ar
    17    35    43    1
    18    36    29    1
    19    43    44    1
    20    14    15   ar
    21    14    13   ar
    22    15    16   ar
    23    30    29   ar
    24    30    26   ar
    25    29    28   ar
    26     7     3    1
    27    10    11    3
    28    13     5    1
    29    13    12   ar
    30     5     6   ar
    31     5     4   ar
    32    11     4    1
    33     6     1   ar
    34     4     3   ar
    35     2     3   ar
    36     2     1   ar
    37     2     8    1
    38     1     9    1
    39    16    26    1
    40    16    17   ar
    41    26    27   ar
    42    28    27   ar
    43    28    33    1
    44    12    17   ar
    45    12    19    1
    46    27    32    1
    47    33    34    1
    48    23    20    1
    49    19    20    1
    50    32    31    3
    51    20    22    1
    52    20    21    1
