@<TRIPOS>MOLECULE
mol_data/noopt/geoms/mol2/6ae12hd(230)6he(180)4hl(340).out
 52 55 0 0 0
SMALL
GASTEIGER

@<TRIPOS>ATOM
      1 C          -4.5775   -2.0270    0.0001 C.ar    1  LIG1        0.0285
      2 C          -3.1706   -2.0270    0.0001 C.ar    1  LIG1       -0.0424
      3 C          -2.5039   -0.8004    0.0001 C.ar    1  LIG1       -0.0427
      4 C          -3.2580    0.3743   -0.0001 C.ar    1  LIG1        0.0537
      5 C          -4.6612    0.2715   -0.0003 C.ar    1  LIG1        0.1231
      6 N          -5.3207   -0.9034   -0.0001 N.ar    1  LIG1       -0.2506
      7 H          -1.4054   -0.7607   -0.0009 H       1  LIG1        0.0631
      8 H          -2.5135   -3.1487    0.0004 H       1  LIG1        0.0633
      9 H          -5.2431   -3.1437    0.0002 H       1  LIG1        0.0830
     10 C          -2.6846    1.5410   -0.0003 C.1     1  LIG1       -0.0674
     11 C          -2.1548    2.6190   -0.0005 C.1     1  LIG1       -0.1138
     12 H          -1.6828    3.5793   -0.0006 H       1  LIG1        0.1232
     13 C          -5.4065    1.3366   -0.0004 C.ar    1  LIG1        0.1768
     14 C          -6.5186    1.7586   -0.6991 C.ar    1  LIG1        0.0908
     15 C          -6.8503    3.0750   -0.1951 C.ar    1  LIG1        0.1188
     16 C          -5.9186    3.3701    0.7787 C.ar    1  LIG1        0.1582
     17 O          -5.0177    2.3137    0.9172 O.2     1  LIG1       -0.4499
     18 N          -7.1620    1.1206   -1.6314 N.pl3   1  LIG1       -0.3540
     19 H          -7.6618    1.7748   -2.1989 H       1  LIG1        0.1425
     20 H          -6.5120    0.6153   -2.1990 H       1  LIG1        0.1425
     21 N          -8.7137    4.4656   -0.9567 N.1     1  LIG1       -0.1907
     22 C          -7.8404    3.8139   -0.5998 C.1     1  LIG1        0.1049
     23 C          -4.3870    4.6613    2.0058 C.ar    1  LIG1        0.1277
     24 C          -5.6945    4.3754    1.5720 C.ar    1  LIG1        0.0593
     25 C          -6.7368    5.1933    2.0120 C.ar    1  LIG1       -0.0302
     26 C          -6.4408    6.2596    2.8630 C.ar    1  LIG1        0.0515
     27 C          -5.1014    6.4647    3.2417 C.ar    1  LIG1        0.0903
     28 N          -4.0836    5.6856    2.8265 N.ar    1  LIG1       -0.2304
     29 H          -7.7715    5.0004    1.6950 H       1  LIG1        0.0639
     30 N          -3.3836    3.9287    1.6231 N.pl3   1  LIG1       -0.3426
     31 H          -3.7199    3.1632    1.0745 H       1  LIG1        0.1437
     32 H          -2.7570    4.4820    1.0745 H       1  LIG1        0.1437
     33 C          -7.3758    7.0498    3.3005 C.1     1  LIG1       -0.0675
     34 C          -8.2397    7.7800    3.7047 C.1     1  LIG1       -0.1138
     35 H          -9.0093    8.4304    4.0647 H       1  LIG1        0.1232
     36 C          -3.4296    7.8516    4.1280 C.ar    1  LIG1        0.0341
     37 C          -3.1283    8.9161    4.9994 C.ar    1  LIG1       -0.0370
     38 C          -4.7759    7.4440    4.0322 C.ar    1  LIG1        0.0257
     39 C          -4.1220    9.5487    5.7431 C.ar    1  LIG1       -0.0182
     40 H          -2.0958    9.2464    5.0887 H       1  LIG1        0.0637
     41 C          -5.7683    8.0752    4.7743 C.ar    1  LIG1       -0.0090
     42 C          -5.4490    9.1311    5.6343 C.ar    1  LIG1        0.1208
     43 H          -6.7991    7.7425    4.6831 H       1  LIG1        0.0661
     44 H          -3.8083   10.5284    6.5380 H       1  LIG1        0.0655
     45 N          -2.4595    7.3011    3.4602 N.pl3   1  LIG1       -0.3575
     46 H          -2.8244    6.5694    2.8845 H       1  LIG1        0.1423
     47 H          -2.0184    7.9896    2.8845 H       1  LIG1        0.1423
     48 O          -6.3810    9.7173    6.3257 O.3     1  LIG1       -0.4951
     49 C          -6.0054   11.0736    6.5795 C.3     1  LIG1        0.0788
     50 H          -6.7728   11.5557    7.1485 H       1  LIG1        0.0660
     51 H          -5.0880   11.0927    7.1300 H       1  LIG1        0.0660
     52 H          -5.8745   11.5873    5.6501 H       1  LIG1        0.0660
@<TRIPOS>BOND
     1    20    18    1
     2    19    18    1
     3    18    14    1
     4    21    22    3
     5    14    15   ar
     6    14    13   ar
     7    22    15    1
     8    15    16   ar
     9     7     3    1
    10    12    11    1
    11    11    10    3
    12    13     5    1
    13    13    17   ar
    14     5     4   ar
    15     5     6   ar
    16    10     4    1
    17     4     3   ar
    18     6     1   ar
    19     1     2   ar
    20     1     9    1
    21     3     2   ar
    22     2     8    1
    23    16    17   ar
    24    16    24    1
    25    32    30    1
    26    31    30    1
    27    24    23   ar
    28    24    25   ar
    29    30    23    1
    30    29    25    1
    31    23    28   ar
    32    25    26   ar
    33    28    27   ar
    34    26    27   ar
    35    26    33    1
    36    47    45    1
    37    46    45    1
    38    27    38    1
    39    33    34    3
    40    45    36    1
    41    34    35    1
    42    38    36   ar
    43    38    41   ar
    44    36    37   ar
    45    43    41    1
    46    41    42   ar
    47    37    40    1
    48    37    39   ar
    49    42    39   ar
    50    42    48    1
    51    52    49    1
    52    39    44    1
    53    48    49    1
    54    49    51    1
    55    49    50    1
