@<TRIPOS>MOLECULE
mol_data/noopt/geoms/mol2/6ae4ha(240)13ea(200)4lh(280).out
 51 54 0 0 0
SMALL
GASTEIGER

@<TRIPOS>ATOM
      1 C          -4.5775   -2.0270    0.0001 C.ar    1  LIG1        0.0283
      2 C          -3.1706   -2.0270    0.0001 C.ar    1  LIG1       -0.0424
      3 C          -2.5039   -0.8004    0.0001 C.ar    1  LIG1       -0.0428
      4 C          -3.2580    0.3743   -0.0001 C.ar    1  LIG1        0.0507
      5 C          -4.6612    0.2715   -0.0003 C.ar    1  LIG1        0.0880
      6 N          -5.3207   -0.9034   -0.0001 N.ar    1  LIG1       -0.2537
      7 H          -1.4054   -0.7607   -0.0009 H       1  LIG1        0.0631
      8 H          -2.5135   -3.1487    0.0004 H       1  LIG1        0.0633
      9 H          -5.2431   -3.1437    0.0002 H       1  LIG1        0.0830
     10 C          -2.6846    1.5410   -0.0003 C.1     1  LIG1       -0.0675
     11 C          -2.1548    2.6190   -0.0005 C.1     1  LIG1       -0.1138
     12 H          -1.6828    3.5793   -0.0006 H       1  LIG1        0.1232
     13 C          -6.3095    1.5620   -1.0595 C.ar    1  LIG1        0.0345
     14 C          -7.0932    2.7311   -1.0139 C.ar    1  LIG1       -0.0313
     15 C          -5.4065    1.3366   -0.0004 C.ar    1  LIG1        0.0222
     16 C          -6.9849    3.6369    0.0389 C.ar    1  LIG1        0.0013
     17 H          -7.7963    2.9246   -1.8210 H       1  LIG1        0.0643
     18 C          -5.2979    2.2405    1.0509 C.ar    1  LIG1       -0.0501
     19 C          -6.0855    3.3961    1.0784 C.ar    1  LIG1       -0.0519
     20 H          -4.5941    2.0443    1.8558 H       1  LIG1        0.0625
     21 N          -6.4555    0.7545   -2.0678 N.pl3   1  LIG1       -0.3574
     22 H          -7.2313    1.0525   -2.6238 H       1  LIG1        0.1423
     23 H          -5.6244    0.7620   -2.6239 H       1  LIG1        0.1423
     24 H          -5.9796    4.2375    2.0636 H       1  LIG1        0.0624
     25 C          -7.7241    4.7062    0.0491 C.ar    1  LIG1        0.0625
     26 C          -9.0340    4.8759   -0.2720 C.ar    1  LIG1        0.0505
     27 C          -9.3443    6.2613   -0.0848 C.ar    1  LIG1       -0.0203
     28 C          -8.2107    6.8770    0.3441 C.ar    1  LIG1        0.0517
     29 N          -7.2162    5.9287    0.4270 N.ar    1  LIG1       -0.3531
     30 H          -6.2802    6.0994    0.7147 H       1  LIG1        0.1659
     31 C          -9.8512    3.9490   -0.6758 C.1     1  LIG1       -0.0675
     32 C         -10.6062    3.0925   -1.0489 C.1     1  LIG1       -0.1138
     33 H         -11.2788    2.3296   -1.3813 H       1  LIG1        0.1232
     34 H         -10.4962    6.8292   -0.2863 H       1  LIG1        0.0651
     35 C          -7.6119    9.0340   -0.3579 C.ar    1  LIG1        0.1293
     36 C          -7.3829   10.3704    0.0229 C.ar    1  LIG1       -0.0176
     37 C          -7.9900    8.1215    0.6482 C.ar    1  LIG1        0.0417
     38 C          -7.5242   10.7823    1.3461 C.ar    1  LIG1       -0.0376
     39 H          -7.0901   11.0910   -0.7375 H       1  LIG1        0.0655
     40 C          -8.1312    8.5322    1.9693 C.ar    1  LIG1       -0.0284
     41 C          -7.8996    9.8643    2.3277 C.ar    1  LIG1        0.0254
     42 H          -8.4237    7.8096    2.7268 H       1  LIG1        0.0644
     43 H          -7.3049   12.0241    1.6625 H       1  LIG1        0.0637
     44 O          -7.4643    8.7097   -1.6082 O.3     1  LIG1       -0.4945
     45 C          -8.6371    8.0324   -2.0672 C.3     1  LIG1        0.0788
     46 H          -8.5153    7.7659   -3.0963 H       1  LIG1        0.0660
     47 H          -8.7888    7.1475   -1.4851 H       1  LIG1        0.0660
     48 H          -9.4848    8.6770   -1.9637 H       1  LIG1        0.0660
     49 N          -8.0330   10.2424    3.5643 N.pl3   1  LIG1       -0.3579
     50 H          -7.4463   11.0339    3.7360 H       1  LIG1        0.1423
     51 H          -8.9863   10.4908    3.7360 H       1  LIG1        0.1423
@<TRIPOS>BOND
     1    46    45    1
     2    23    21    1
     3    22    21    1
     4    21    13    1
     5    45    48    1
     6    45    44    1
     7    45    47    1
     8    17    14    1
     9    44    35    1
    10    33    32    1
    11    13    14   ar
    12    13    15   ar
    13    32    31    3
    14    14    16   ar
    15    39    36    1
    16    31    26    1
    17    35    36   ar
    18    35    37   ar
    19    34    27    1
    20    26    27   ar
    21    26    25   ar
    22    27    28   ar
    23     7     3    1
    24    12    11    1
    25    11    10    3
    26    15     5    1
    27    15    18   ar
    28    10     4    1
    29     5     6   ar
    30     5     4   ar
    31     6     1   ar
    32     4     3   ar
    33     1     2   ar
    34     1     9    1
    35     2     3   ar
    36     2     8    1
    37    36    38   ar
    38    16    25    1
    39    16    19   ar
    40    25    29   ar
    41    28    29   ar
    42    28    37    1
    43    29    30    1
    44    37    40   ar
    45    18    19   ar
    46    18    20    1
    47    19    24    1
    48    38    43    1
    49    38    41   ar
    50    40    41   ar
    51    40    42    1
    52    41    49    1
    53    49    50    1
    54    49    51    1
