@<TRIPOS>MOLECULE
mol_data/noopt/geoms/mol2/6ae6ae6ae-6ae.out
 46 49 0 0 0
SMALL
GASTEIGER

@<TRIPOS>ATOM
      1 C          -4.5775   -2.0270    0.0001 C.ar    1  LIG1        0.0283
      2 C          -3.1706   -2.0270    0.0001 C.ar    1  LIG1       -0.0424
      3 C          -2.5039   -0.8004    0.0001 C.ar    1  LIG1       -0.0428
      4 C          -3.2580    0.3743   -0.0001 C.ar    1  LIG1        0.0507
      5 C          -4.6612    0.2715   -0.0003 C.ar    1  LIG1        0.0878
      6 N          -5.3207   -0.9034   -0.0001 N.ar    1  LIG1       -0.2537
      7 H          -1.4054   -0.7607   -0.0009 H       1  LIG1        0.0631
      8 H          -2.5135   -3.1487    0.0004 H       1  LIG1        0.0633
      9 H          -5.2431   -3.1437    0.0002 H       1  LIG1        0.0830
     10 C          -2.6846    1.5410   -0.0003 C.1     1  LIG1       -0.0675
     11 C          -2.1548    2.6190   -0.0005 C.1     1  LIG1       -0.1138
     12 H          -1.6828    3.5793   -0.0006 H       1  LIG1        0.1232
     13 C          -6.8088    1.2233   -0.0003 C.ar    1  LIG1        0.0375
     14 C          -5.4065    1.3366   -0.0004 C.ar    1  LIG1        0.0208
     15 C          -4.8408    2.6129   -0.0003 C.ar    1  LIG1       -0.0336
     16 C          -5.6871    3.7231   -0.0003 C.ar    1  LIG1        0.0513
     17 C          -7.0774    3.5076   -0.0004 C.ar    1  LIG1        0.0878
     18 N          -7.6401    2.2834   -0.0003 N.ar    1  LIG1       -0.2530
     19 H          -3.7491    2.7410   -0.0014 H       1  LIG1        0.0637
     20 H          -7.3823    0.0566   -0.0003 H       1  LIG1        0.0836
     21 C          -5.2095    4.9322   -0.0004 C.1     1  LIG1       -0.0675
     22 C          -4.7682    6.0494   -0.0004 C.1     1  LIG1       -0.1138
     23 H          -4.3752    7.0446   -0.0005 H       1  LIG1        0.1232
     24 C          -7.4241    5.8310   -0.0000 C.ar    1  LIG1        0.0375
     25 C          -7.9061    4.5092   -0.0003 C.ar    1  LIG1        0.0208
     26 C          -9.2869    4.3031   -0.0001 C.ar    1  LIG1       -0.0336
     27 C         -10.1321    5.4140    0.0002 C.ar    1  LIG1        0.0513
     28 C          -9.5548    6.6971    0.0002 C.ar    1  LIG1        0.0878
     29 N          -8.2251    6.9141    0.0002 N.ar    1  LIG1       -0.2530
     30 H          -9.7005    3.2847   -0.0012 H       1  LIG1        0.0637
     31 H          -6.1470    6.0737   -0.0001 H       1  LIG1        0.0836
     32 C         -11.4247    5.2750    0.0002 C.1     1  LIG1       -0.0675
     33 C         -12.6190    5.1466    0.0002 C.1     1  LIG1       -0.1138
     34 H         -13.6829    5.0322    0.0002 H       1  LIG1        0.1232
     35 C         -11.7025    7.6489    0.0008 C.ar    1  LIG1        0.0368
     36 C         -10.3001    7.7622    0.0005 C.ar    1  LIG1        0.0208
     37 C          -9.7344    9.0385    0.0008 C.ar    1  LIG1       -0.0342
     38 C         -10.5807   10.1487    0.0012 C.ar    1  LIG1        0.0434
     39 C         -11.9710    9.9332    0.0013 C.ar    1  LIG1        0.0430
     40 N         -12.5338    8.7090    0.0012 N.ar    1  LIG1       -0.2614
     41 H          -8.6427    9.1666   -0.0004 H       1  LIG1        0.0637
     42 H         -12.7997   10.9348    0.0018 H       1  LIG1        0.0842
     43 H         -12.2760    6.4822    0.0006 H       1  LIG1        0.0836
     44 C         -10.1031   11.3578    0.0014 C.1     1  LIG1       -0.0681
     45 C          -9.6619   12.4750    0.0015 C.1     1  LIG1       -0.1139
     46 H          -9.2688   13.4702    0.0016 H       1  LIG1        0.1232
@<TRIPOS>BOND
     1    19    15    1
     2    30    26    1
     3     7     3    1
     4    12    11    1
     5    23    22    1
     6    11    10    3
     7    22    21    3
     8    41    37    1
     9    14     5    1
    10    14    13   ar
    11    14    15   ar
    12    17    18   ar
    13    17    25    1
    14    17    16   ar
    15    21    16    1
    16     5     6   ar
    17     5     4   ar
    18    10     4    1
    19    13    20    1
    20    13    18   ar
    21    15    16   ar
    22    25    26   ar
    23    25    24   ar
    24    31    24    1
    25     6     1   ar
    26     4     3   ar
    27    26    27   ar
    28    24    29   ar
    29     1     2   ar
    30     1     9    1
    31     3     2   ar
    32     2     8    1
    33    27    32    1
    34    27    28   ar
    35    32    33    3
    36    28    29   ar
    37    28    36    1
    38    33    34    1
    39    36    35   ar
    40    36    37   ar
    41    43    35    1
    42    35    40   ar
    43    37    38   ar
    44    40    39   ar
    45    38    39   ar
    46    38    44    1
    47    39    42    1
    48    44    45    3
    49    45    46    1
