@<TRIPOS>MOLECULE
mol_data/noopt/geoms/mol2/6ae6ae-6ae-6ae.out
 46 49 0 0 0
SMALL
GASTEIGER

@<TRIPOS>ATOM
      1 C          -4.5775   -2.0270    0.0001 C.ar    1  LIG1        0.0283
      2 C          -3.1706   -2.0270    0.0001 C.ar    1  LIG1       -0.0424
      3 C          -2.5039   -0.8004    0.0001 C.ar    1  LIG1       -0.0428
      4 C          -3.2580    0.3743   -0.0001 C.ar    1  LIG1        0.0507
      5 C          -4.6612    0.2715   -0.0003 C.ar    1  LIG1        0.0878
      6 N          -5.3207   -0.9034   -0.0001 N.ar    1  LIG1       -0.2537
      7 H          -1.4054   -0.7607   -0.0009 H       1  LIG1        0.0631
      8 H          -2.5135   -3.1487    0.0004 H       1  LIG1        0.0633
      9 H          -5.2431   -3.1437    0.0002 H       1  LIG1        0.0830
     10 C          -2.6846    1.5410   -0.0003 C.1     1  LIG1       -0.0675
     11 C          -2.1548    2.6190   -0.0005 C.1     1  LIG1       -0.1138
     12 H          -1.6828    3.5793   -0.0006 H       1  LIG1        0.1232
     13 C          -4.8196    2.6153   -0.0003 C.ar    1  LIG1        0.0375
     14 C          -5.4065    1.3366   -0.0004 C.ar    1  LIG1        0.0208
     15 C          -6.7994    1.2424   -0.0003 C.ar    1  LIG1       -0.0336
     16 C          -7.5524    2.4178   -0.0003 C.ar    1  LIG1        0.0513
     17 C          -6.8736    3.6502   -0.0004 C.ar    1  LIG1        0.0878
     18 N          -5.5307    3.7594   -0.0003 N.ar    1  LIG1       -0.2530
     19 H          -7.2937    0.2606   -0.0014 H       1  LIG1        0.0637
     20 H          -3.5271    2.7543   -0.0003 H       1  LIG1        0.0836
     21 C          -8.8520    2.3834   -0.0004 C.1     1  LIG1       -0.0675
     22 C         -10.0528    2.3516   -0.0005 C.1     1  LIG1       -0.1138
     23 H         -11.1224    2.3232   -0.0006 H       1  LIG1        0.1232
     24 C          -6.8427    5.9991   -0.0000 C.ar    1  LIG1        0.0375
     25 C          -7.5307    4.7719   -0.0003 C.ar    1  LIG1        0.0208
     26 C          -8.9267    4.7902   -0.0001 C.ar    1  LIG1       -0.0336
     27 C          -9.5826    6.0224    0.0002 C.ar    1  LIG1        0.0513
     28 C          -8.8067    7.1961    0.0002 C.ar    1  LIG1        0.0878
     29 N          -7.4594    7.1968    0.0002 N.ar    1  LIG1       -0.2530
     30 H          -9.4985    3.8514   -0.0012 H       1  LIG1        0.0637
     31 H          -5.5432    6.0336   -0.0001 H       1  LIG1        0.0836
     32 C         -10.8807    6.0928    0.0002 C.1     1  LIG1       -0.0675
     33 C         -12.0801    6.1578    0.0002 C.1     1  LIG1       -0.1138
     34 H         -13.1486    6.2157    0.0002 H       1  LIG1        0.1232
     35 C         -10.7737    8.4804    0.0008 C.ar    1  LIG1        0.0368
     36 C          -9.3714    8.3671    0.0005 C.ar    1  LIG1        0.0208
     37 C          -8.6080    9.5360    0.0008 C.ar    1  LIG1       -0.0342
     38 C          -9.2650   10.7676    0.0012 C.ar    1  LIG1        0.0434
     39 C         -10.6720   10.7782    0.0013 C.ar    1  LIG1        0.0430
     40 N         -11.4240    9.6602    0.0012 N.ar    1  LIG1       -0.2614
     41 H          -7.5099    9.4871   -0.0004 H       1  LIG1        0.0637
     42 H         -11.3291   11.8999    0.0018 H       1  LIG1        0.0842
     43 H         -11.5271    7.4210    0.0006 H       1  LIG1        0.0836
     44 C          -8.5995   11.8843    0.0014 C.1     1  LIG1       -0.0681
     45 C          -7.9846   12.9162    0.0015 C.1     1  LIG1       -0.1139
     46 H          -7.4368   13.8354    0.0016 H       1  LIG1        0.1232
@<TRIPOS>BOND
     1    19    15    1
     2    30    26    1
     3     7     3    1
     4    12    11    1
     5    23    22    1
     6    22    21    3
     7    11    10    3
     8    41    37    1
     9    14    15   ar
    10    14     5    1
    11    14    13   ar
    12    21    16    1
    13    17    16   ar
    14    17    25    1
    15    17    18   ar
    16    15    16   ar
    17    10     4    1
    18     5     6   ar
    19     5     4   ar
    20    25    26   ar
    21    25    24   ar
    22    13    18   ar
    23    13    20    1
    24    31    24    1
    25     6     1   ar
    26     4     3   ar
    27    26    27   ar
    28    24    29   ar
    29     1     2   ar
    30     1     9    1
    31     3     2   ar
    32     2     8    1
    33    27    28   ar
    34    27    32    1
    35    28    29   ar
    36    28    36    1
    37    32    33    3
    38    33    34    1
    39    36    35   ar
    40    36    37   ar
    41    43    35    1
    42    35    40   ar
    43    37    38   ar
    44    40    39   ar
    45    38    39   ar
    46    38    44    1
    47    39    42    1
    48    44    45    3
    49    45    46    1
