@<TRIPOS>MOLECULE
mol_data/noopt/geoms/mol2/6ae6ae6ae.out
 35 37 0 0 0
SMALL
GASTEIGER

@<TRIPOS>ATOM
      1 C          -4.5775   -2.0270    0.0001 C.ar    1  LIG1        0.0283
      2 C          -3.1706   -2.0270    0.0001 C.ar    1  LIG1       -0.0424
      3 C          -2.5039   -0.8004    0.0001 C.ar    1  LIG1       -0.0428
      4 C          -3.2580    0.3743   -0.0001 C.ar    1  LIG1        0.0507
      5 C          -4.6612    0.2715   -0.0003 C.ar    1  LIG1        0.0878
      6 N          -5.3207   -0.9034   -0.0001 N.ar    1  LIG1       -0.2537
      7 H          -1.4054   -0.7607   -0.0009 H       1  LIG1        0.0631
      8 H          -2.5135   -3.1487    0.0004 H       1  LIG1        0.0633
      9 H          -5.2431   -3.1437    0.0002 H       1  LIG1        0.0830
     10 C          -2.6846    1.5410   -0.0003 C.1     1  LIG1       -0.0675
     11 C          -2.1548    2.6190   -0.0005 C.1     1  LIG1       -0.1138
     12 H          -1.6828    3.5793   -0.0006 H       1  LIG1        0.1232
     13 C          -6.8088    1.2233   -0.0003 C.ar    1  LIG1        0.0375
     14 C          -5.4065    1.3366   -0.0004 C.ar    1  LIG1        0.0208
     15 C          -4.8408    2.6129   -0.0003 C.ar    1  LIG1       -0.0336
     16 C          -5.6871    3.7231   -0.0003 C.ar    1  LIG1        0.0513
     17 C          -7.0774    3.5076   -0.0004 C.ar    1  LIG1        0.0878
     18 N          -7.6401    2.2834   -0.0003 N.ar    1  LIG1       -0.2530
     19 H          -3.7491    2.7410   -0.0014 H       1  LIG1        0.0637
     20 H          -7.3823    0.0566   -0.0003 H       1  LIG1        0.0836
     21 C          -5.2095    4.9322   -0.0004 C.1     1  LIG1       -0.0675
     22 C          -4.7682    6.0494   -0.0004 C.1     1  LIG1       -0.1138
     23 H          -4.3752    7.0446   -0.0005 H       1  LIG1        0.1232
     24 C          -9.2948    4.2833   -0.0001 C.ar    1  LIG1        0.0368
     25 C          -7.9061    4.5092   -0.0003 C.ar    1  LIG1        0.0208
     26 C          -7.4450    5.8270   -0.0001 C.ar    1  LIG1       -0.0342
     27 C          -8.3780    6.8653    0.0002 C.ar    1  LIG1        0.0434
     28 C          -9.7465    6.5385    0.0002 C.ar    1  LIG1        0.0430
     29 N         -10.2087    5.2730    0.0002 N.ar    1  LIG1       -0.2614
     30 H          -6.3672    6.0425   -0.0012 H       1  LIG1        0.0637
     31 H         -10.6531    7.4701    0.0005 H       1  LIG1        0.0842
     32 H          -9.7724    3.0742   -0.0002 H       1  LIG1        0.0836
     33 C          -7.9994    8.1090    0.0002 C.1     1  LIG1       -0.0681
     34 C          -7.6495    9.2581    0.0002 C.1     1  LIG1       -0.1139
     35 H          -7.3379   10.2817    0.0002 H       1  LIG1        0.1232
@<TRIPOS>BOND
     1    19    15    1
     2    30    26    1
     3     7     3    1
     4    12    11    1
     5    23    22    1
     6    11    10    3
     7    22    21    3
     8    14     5    1
     9    14    13   ar
    10    14    15   ar
    11    17    18   ar
    12    17    25    1
    13    17    16   ar
    14    21    16    1
    15    10     4    1
    16     5     6   ar
    17     5     4   ar
    18    13    20    1
    19    13    18   ar
    20    15    16   ar
    21    25    24   ar
    22    25    26   ar
    23    32    24    1
    24     6     1   ar
    25     4     3   ar
    26    24    29   ar
    27    26    27   ar
    28     1     2   ar
    29     1     9    1
    30     3     2   ar
    31     2     8    1
    32    29    28   ar
    33    28    27   ar
    34    28    31    1
    35    27    33    1
    36    33    34    3
    37    34    35    1
