@<TRIPOS>MOLECULE
mol_data/noopt/geoms/mol2/6ae6ae-6ae6ae-.out
 46 49 0 0 0
SMALL
GASTEIGER

@<TRIPOS>ATOM
      1 C          -4.5775   -2.0270    0.0001 C.ar    1  LIG1        0.0283
      2 C          -3.1706   -2.0270    0.0001 C.ar    1  LIG1       -0.0424
      3 C          -2.5039   -0.8004    0.0001 C.ar    1  LIG1       -0.0428
      4 C          -3.2580    0.3743   -0.0001 C.ar    1  LIG1        0.0507
      5 C          -4.6612    0.2715   -0.0003 C.ar    1  LIG1        0.0878
      6 N          -5.3207   -0.9034   -0.0001 N.ar    1  LIG1       -0.2537
      7 H          -1.4054   -0.7607   -0.0009 H       1  LIG1        0.0631
      8 H          -2.5135   -3.1487    0.0004 H       1  LIG1        0.0633
      9 H          -5.2431   -3.1437    0.0002 H       1  LIG1        0.0830
     10 C          -2.6846    1.5410   -0.0003 C.1     1  LIG1       -0.0675
     11 C          -2.1548    2.6190   -0.0005 C.1     1  LIG1       -0.1138
     12 H          -1.6828    3.5793   -0.0006 H       1  LIG1        0.1232
     13 C          -4.8196    2.6153   -0.0003 C.ar    1  LIG1        0.0375
     14 C          -5.4065    1.3366   -0.0004 C.ar    1  LIG1        0.0208
     15 C          -6.7994    1.2424   -0.0003 C.ar    1  LIG1       -0.0336
     16 C          -7.5524    2.4178   -0.0003 C.ar    1  LIG1        0.0513
     17 C          -6.8736    3.6502   -0.0004 C.ar    1  LIG1        0.0878
     18 N          -5.5307    3.7594   -0.0003 N.ar    1  LIG1       -0.2530
     19 H          -7.2937    0.2606   -0.0014 H       1  LIG1        0.0637
     20 H          -3.5271    2.7543   -0.0003 H       1  LIG1        0.0836
     21 C          -8.8520    2.3834   -0.0004 C.1     1  LIG1       -0.0675
     22 C         -10.0528    2.3516   -0.0005 C.1     1  LIG1       -0.1138
     23 H         -11.1224    2.3232   -0.0006 H       1  LIG1        0.1232
     24 C          -8.9376    4.7719   -0.0001 C.ar    1  LIG1        0.0375
     25 C          -7.5307    4.7719   -0.0003 C.ar    1  LIG1        0.0208
     26 C          -6.8640    5.9985   -0.0001 C.ar    1  LIG1       -0.0336
     27 C          -7.6181    7.1732    0.0002 C.ar    1  LIG1        0.0513
     28 C          -9.0213    7.0704    0.0002 C.ar    1  LIG1        0.0878
     29 N          -9.6808    5.8955    0.0002 N.ar    1  LIG1       -0.2530
     30 H          -5.7655    6.0382   -0.0012 H       1  LIG1        0.0637
     31 H          -9.6032    3.6552   -0.0002 H       1  LIG1        0.0836
     32 C          -7.0447    8.3399    0.0002 C.1     1  LIG1       -0.0675
     33 C          -6.5149    9.4179    0.0002 C.1     1  LIG1       -0.1138
     34 H          -6.0430   10.3782    0.0002 H       1  LIG1        0.1232
     35 C          -9.1798    9.4141    0.0008 C.ar    1  LIG1        0.0368
     36 C          -9.7667    8.1355    0.0005 C.ar    1  LIG1        0.0208
     37 C         -11.1596    8.0413    0.0008 C.ar    1  LIG1       -0.0342
     38 C         -11.9126    9.2167    0.0012 C.ar    1  LIG1        0.0434
     39 C         -11.2338   10.4491    0.0013 C.ar    1  LIG1        0.0430
     40 N          -9.8909   10.5583    0.0012 N.ar    1  LIG1       -0.2614
     41 H         -11.6539    7.0595   -0.0005 H       1  LIG1        0.0637
     42 H         -11.8909   11.5707    0.0018 H       1  LIG1        0.0842
     43 H          -7.8872    9.5532    0.0006 H       1  LIG1        0.0836
     44 C         -13.2121    9.1823    0.0013 C.1     1  LIG1       -0.0681
     45 C         -14.4129    9.1504    0.0015 C.1     1  LIG1       -0.1139
     46 H         -15.4825    9.1221    0.0015 H       1  LIG1        0.1232
@<TRIPOS>BOND
     1    19    15    1
     2    30    26    1
     3     7     3    1
     4    12    11    1
     5    23    22    1
     6    22    21    3
     7    11    10    3
     8    41    37    1
     9    14    15   ar
    10    14     5    1
    11    14    13   ar
    12    21    16    1
    13    17    16   ar
    14    17    25    1
    15    17    18   ar
    16    15    16   ar
    17    10     4    1
    18     5     6   ar
    19     5     4   ar
    20    25    24   ar
    21    25    26   ar
    22    13    18   ar
    23    13    20    1
    24    31    24    1
    25     6     1   ar
    26     4     3   ar
    27    24    29   ar
    28    26    27   ar
    29     1     2   ar
    30     1     9    1
    31     3     2   ar
    32     2     8    1
    33    29    28   ar
    34    28    27   ar
    35    28    36    1
    36    27    32    1
    37    32    33    3
    38    33    34    1
    39    36    37   ar
    40    36    35   ar
    41    43    35    1
    42    37    38   ar
    43    35    40   ar
    44    38    39   ar
    45    38    44    1
    46    40    39   ar
    47    39    42    1
    48    44    45    3
    49    45    46    1
