@<TRIPOS>MOLECULE
mol_data/noopt/geoms/mol2/6ae6ae-4ae6ae.out
 47 50 0 0 0
SMALL
GASTEIGER

@<TRIPOS>ATOM
      1 C          -4.5775   -2.0270    0.0001 C.ar    1  LIG1        0.0283
      2 C          -3.1706   -2.0270    0.0001 C.ar    1  LIG1       -0.0424
      3 C          -2.5039   -0.8004    0.0001 C.ar    1  LIG1       -0.0428
      4 C          -3.2580    0.3743   -0.0001 C.ar    1  LIG1        0.0507
      5 C          -4.6612    0.2715   -0.0003 C.ar    1  LIG1        0.0878
      6 N          -5.3207   -0.9034   -0.0001 N.ar    1  LIG1       -0.2537
      7 H          -1.4054   -0.7607   -0.0009 H       1  LIG1        0.0631
      8 H          -2.5135   -3.1487    0.0004 H       1  LIG1        0.0633
      9 H          -5.2431   -3.1437    0.0002 H       1  LIG1        0.0830
     10 C          -2.6846    1.5410   -0.0003 C.1     1  LIG1       -0.0675
     11 C          -2.1548    2.6190   -0.0005 C.1     1  LIG1       -0.1138
     12 H          -1.6828    3.5793   -0.0006 H       1  LIG1        0.1232
     13 C          -4.8196    2.6153   -0.0003 C.ar    1  LIG1        0.0375
     14 C          -5.4065    1.3366   -0.0004 C.ar    1  LIG1        0.0208
     15 C          -6.7994    1.2424   -0.0003 C.ar    1  LIG1       -0.0336
     16 C          -7.5524    2.4178   -0.0003 C.ar    1  LIG1        0.0512
     17 C          -6.8736    3.6502   -0.0004 C.ar    1  LIG1        0.0864
     18 N          -5.5307    3.7594   -0.0003 N.ar    1  LIG1       -0.2531
     19 H          -7.2937    0.2606   -0.0014 H       1  LIG1        0.0637
     20 H          -3.5271    2.7543   -0.0003 H       1  LIG1        0.0836
     21 C          -8.8520    2.3834   -0.0004 C.1     1  LIG1       -0.0675
     22 C         -10.0528    2.3516   -0.0005 C.1     1  LIG1       -0.1138
     23 H         -11.1224    2.3232   -0.0006 H       1  LIG1        0.1232
     24 C          -6.8310    5.9958    0.0005 C.ar    1  LIG1       -0.0519
     25 C          -7.5886    7.1830    0.0022 C.ar    1  LIG1       -0.0522
     26 C          -7.5307    4.7718   -0.0003 C.ar    1  LIG1        0.0027
     27 C          -8.9814    7.1551    0.0023 C.ar    1  LIG1       -0.0010
     28 H          -7.0688    8.1385    0.0030 H       1  LIG1        0.0624
     29 C          -8.9211    4.7434   -0.0001 C.ar    1  LIG1       -0.0365
     30 C          -9.6560    5.9336    0.0011 C.ar    1  LIG1        0.0330
     31 H          -9.4376    3.7869   -0.0006 H       1  LIG1        0.0636
     32 H          -5.5341    6.0859    0.0002 H       1  LIG1        0.0624
     33 C         -10.9556    5.9008    0.0014 C.1     1  LIG1       -0.0690
     34 C         -12.1564    5.8705    0.0017 C.1     1  LIG1       -0.1139
     35 H         -13.2261    5.8435    0.0020 H       1  LIG1        0.1232
     36 C         -11.0562    8.2567    0.0047 C.ar    1  LIG1        0.0354
     37 C          -9.6493    8.2703    0.0037 C.ar    1  LIG1        0.0025
     38 C          -8.9946    9.5034    0.0047 C.ar    1  LIG1       -0.0357
     39 C          -9.7600   10.6707    0.0063 C.ar    1  LIG1        0.0433
     40 C         -11.1621   10.5543    0.0069 C.ar    1  LIG1        0.0430
     41 N         -11.8102    9.3730    0.0062 N.ar    1  LIG1       -0.2614
     42 H          -7.8965    9.5537    0.0030 H       1  LIG1        0.0637
     43 H         -11.9177   11.6121    0.0085 H       1  LIG1        0.0842
     44 H         -11.7109    7.1336    0.0040 H       1  LIG1        0.0836
     45 C          -9.1980   11.8429    0.0071 C.1     1  LIG1       -0.0681
     46 C          -8.6786   12.9260    0.0077 C.1     1  LIG1       -0.1139
     47 H          -8.2160   13.8909    0.0083 H       1  LIG1        0.1232
@<TRIPOS>BOND
     1    19    15    1
     2     7     3    1
     3    12    11    1
     4    31    29    1
     5    23    22    1
     6    22    21    3
     7    11    10    3
     8    14    15   ar
     9    14     5    1
    10    14    13   ar
    11    21    16    1
    12    17    16   ar
    13    17    26    1
    14    17    18   ar
    15    15    16   ar
    16    10     4    1
    17     5     6   ar
    18     5     4   ar
    19    26    29   ar
    20    26    24   ar
    21    13    18   ar
    22    13    20    1
    23     6     1   ar
    24     4     3   ar
    25    29    30   ar
    26     1     2   ar
    27     1     9    1
    28     3     2   ar
    29     2     8    1
    30    32    24    1
    31    24    25   ar
    32    30    33    1
    33    30    27   ar
    34    33    34    3
    35    34    35    1
    36    25    27   ar
    37    25    28    1
    38    27    37    1
    39    42    38    1
    40    37    36   ar
    41    37    38   ar
    42    44    36    1
    43    36    41   ar
    44    38    39   ar
    45    41    40   ar
    46    39    40   ar
    47    39    45    1
    48    40    43    1
    49    45    46    3
    50    46    47    1
