@<TRIPOS>MOLECULE
mol_data/noopt/geoms/mol2/6ae6ae-6ae.out
 35 37 0 0 0
SMALL
GASTEIGER

@<TRIPOS>ATOM
      1 C          -4.5775   -2.0270    0.0001 C.ar    1  LIG1        0.0283
      2 C          -3.1706   -2.0270    0.0001 C.ar    1  LIG1       -0.0424
      3 C          -2.5039   -0.8004    0.0001 C.ar    1  LIG1       -0.0428
      4 C          -3.2580    0.3743   -0.0001 C.ar    1  LIG1        0.0507
      5 C          -4.6612    0.2715   -0.0003 C.ar    1  LIG1        0.0878
      6 N          -5.3207   -0.9034   -0.0001 N.ar    1  LIG1       -0.2537
      7 H          -1.4054   -0.7607   -0.0009 H       1  LIG1        0.0631
      8 H          -2.5135   -3.1487    0.0004 H       1  LIG1        0.0633
      9 H          -5.2431   -3.1437    0.0002 H       1  LIG1        0.0830
     10 C          -2.6846    1.5410   -0.0003 C.1     1  LIG1       -0.0675
     11 C          -2.1548    2.6190   -0.0005 C.1     1  LIG1       -0.1138
     12 H          -1.6828    3.5793   -0.0006 H       1  LIG1        0.1232
     13 C          -4.8196    2.6153   -0.0003 C.ar    1  LIG1        0.0375
     14 C          -5.4065    1.3366   -0.0004 C.ar    1  LIG1        0.0208
     15 C          -6.7994    1.2424   -0.0003 C.ar    1  LIG1       -0.0336
     16 C          -7.5524    2.4178   -0.0003 C.ar    1  LIG1        0.0513
     17 C          -6.8736    3.6502   -0.0004 C.ar    1  LIG1        0.0878
     18 N          -5.5307    3.7594   -0.0003 N.ar    1  LIG1       -0.2530
     19 H          -7.2937    0.2606   -0.0014 H       1  LIG1        0.0637
     20 H          -3.5271    2.7543   -0.0003 H       1  LIG1        0.0836
     21 C          -8.8520    2.3834   -0.0004 C.1     1  LIG1       -0.0675
     22 C         -10.0528    2.3516   -0.0005 C.1     1  LIG1       -0.1138
     23 H         -11.1224    2.3232   -0.0006 H       1  LIG1        0.1232
     24 C          -8.9376    4.7719   -0.0001 C.ar    1  LIG1        0.0368
     25 C          -7.5307    4.7719   -0.0003 C.ar    1  LIG1        0.0208
     26 C          -6.8640    5.9985   -0.0001 C.ar    1  LIG1       -0.0342
     27 C          -7.6181    7.1732    0.0002 C.ar    1  LIG1        0.0434
     28 C          -9.0213    7.0704    0.0002 C.ar    1  LIG1        0.0430
     29 N          -9.6808    5.8955    0.0002 N.ar    1  LIG1       -0.2614
     30 H          -5.7655    6.0382   -0.0012 H       1  LIG1        0.0637
     31 H          -9.7666    8.1355    0.0005 H       1  LIG1        0.0842
     32 H          -9.6032    3.6552   -0.0002 H       1  LIG1        0.0836
     33 C          -7.0447    8.3399    0.0002 C.1     1  LIG1       -0.0681
     34 C          -6.5149    9.4179    0.0002 C.1     1  LIG1       -0.1139
     35 H          -6.0430   10.3782    0.0002 H       1  LIG1        0.1232
@<TRIPOS>BOND
     1    19    15    1
     2    30    26    1
     3     7     3    1
     4    12    11    1
     5    23    22    1
     6    22    21    3
     7    11    10    3
     8    14    15   ar
     9    14     5    1
    10    14    13   ar
    11    21    16    1
    12    17    16   ar
    13    17    25    1
    14    17    18   ar
    15    15    16   ar
    16     5     6   ar
    17     5     4   ar
    18    10     4    1
    19    25    24   ar
    20    25    26   ar
    21    13    18   ar
    22    13    20    1
    23    32    24    1
    24     6     1   ar
    25     4     3   ar
    26    24    29   ar
    27    26    27   ar
    28     1     2   ar
    29     1     9    1
    30     3     2   ar
    31     2     8    1
    32    29    28   ar
    33    28    27   ar
    34    28    31    1
    35    27    33    1
    36    33    34    3
    37    34    35    1
