@<TRIPOS>MOLECULE
mol_data/noopt/geoms/mol2/6ae6ae-.out
 24 25 0 0 0
SMALL
GASTEIGER

@<TRIPOS>ATOM
      1 C          -4.5775   -2.0270    0.0001 C.ar    1  LIG1        0.0283
      2 C          -3.1706   -2.0270    0.0001 C.ar    1  LIG1       -0.0424
      3 C          -2.5039   -0.8004    0.0001 C.ar    1  LIG1       -0.0428
      4 C          -3.2580    0.3743   -0.0001 C.ar    1  LIG1        0.0507
      5 C          -4.6612    0.2715   -0.0003 C.ar    1  LIG1        0.0878
      6 N          -5.3207   -0.9034   -0.0001 N.ar    1  LIG1       -0.2537
      7 H          -1.4054   -0.7607   -0.0009 H       1  LIG1        0.0631
      8 H          -2.5135   -3.1487    0.0004 H       1  LIG1        0.0633
      9 H          -5.2431   -3.1437    0.0002 H       1  LIG1        0.0830
     10 C          -2.6846    1.5410   -0.0003 C.1     1  LIG1       -0.0675
     11 C          -2.1548    2.6190   -0.0005 C.1     1  LIG1       -0.1138
     12 H          -1.6828    3.5793   -0.0006 H       1  LIG1        0.1232
     13 C          -4.8196    2.6153   -0.0003 C.ar    1  LIG1        0.0368
     14 C          -5.4065    1.3366   -0.0004 C.ar    1  LIG1        0.0208
     15 C          -6.7994    1.2424   -0.0003 C.ar    1  LIG1       -0.0342
     16 C          -7.5524    2.4178   -0.0003 C.ar    1  LIG1        0.0434
     17 C          -6.8736    3.6502   -0.0004 C.ar    1  LIG1        0.0430
     18 N          -5.5307    3.7594   -0.0003 N.ar    1  LIG1       -0.2614
     19 H          -7.2937    0.2606   -0.0014 H       1  LIG1        0.0637
     20 H          -7.5307    4.7719   -0.0003 H       1  LIG1        0.0842
     21 H          -3.5271    2.7543   -0.0003 H       1  LIG1        0.0836
     22 C          -8.8520    2.3834   -0.0004 C.1     1  LIG1       -0.0681
     23 C         -10.0528    2.3516   -0.0005 C.1     1  LIG1       -0.1139
     24 H         -11.1224    2.3232   -0.0006 H       1  LIG1        0.1232
@<TRIPOS>BOND
     1    19    15    1
     2     7     3    1
     3    12    11    1
     4    24    23    1
     5    23    22    3
     6    11    10    3
     7    14    15   ar
     8    14     5    1
     9    14    13   ar
    10    22    16    1
    11    17    16   ar
    12    17    20    1
    13    17    18   ar
    14    15    16   ar
    15     5     6   ar
    16     5     4   ar
    17    10     4    1
    18    13    18   ar
    19    13    21    1
    20     6     1   ar
    21     4     3   ar
    22     1     2   ar
    23     1     9    1
    24     3     2   ar
    25     2     8    1
