@<TRIPOS>MOLECULE
mol_data/noopt/geoms/mol2/6ae6ae.out
 24 25 0 0 0
SMALL
GASTEIGER

@<TRIPOS>ATOM
      1 C          -4.5775   -2.0270    0.0001 C.ar    1  LIG1        0.0283
      2 C          -3.1706   -2.0270    0.0001 C.ar    1  LIG1       -0.0424
      3 C          -2.5039   -0.8004    0.0001 C.ar    1  LIG1       -0.0428
      4 C          -3.2580    0.3743   -0.0001 C.ar    1  LIG1        0.0507
      5 C          -4.6612    0.2715   -0.0003 C.ar    1  LIG1        0.0878
      6 N          -5.3207   -0.9034   -0.0001 N.ar    1  LIG1       -0.2537
      7 H          -1.4054   -0.7607   -0.0009 H       1  LIG1        0.0631
      8 H          -2.5135   -3.1487    0.0004 H       1  LIG1        0.0633
      9 H          -5.2431   -3.1437    0.0002 H       1  LIG1        0.0830
     10 C          -2.6846    1.5410   -0.0003 C.1     1  LIG1       -0.0675
     11 C          -2.1548    2.6190   -0.0005 C.1     1  LIG1       -0.1138
     12 H          -1.6828    3.5793   -0.0006 H       1  LIG1        0.1232
     13 C          -6.8088    1.2233   -0.0003 C.ar    1  LIG1        0.0368
     14 C          -5.4065    1.3366   -0.0004 C.ar    1  LIG1        0.0208
     15 C          -4.8408    2.6129   -0.0003 C.ar    1  LIG1       -0.0342
     16 C          -5.6871    3.7231   -0.0003 C.ar    1  LIG1        0.0434
     17 C          -7.0774    3.5076   -0.0004 C.ar    1  LIG1        0.0430
     18 N          -7.6401    2.2834   -0.0003 N.ar    1  LIG1       -0.2614
     19 H          -3.7491    2.7410   -0.0014 H       1  LIG1        0.0637
     20 H          -7.9061    4.5092   -0.0003 H       1  LIG1        0.0842
     21 H          -7.3823    0.0566   -0.0003 H       1  LIG1        0.0836
     22 C          -5.2095    4.9322   -0.0004 C.1     1  LIG1       -0.0681
     23 C          -4.7682    6.0494   -0.0004 C.1     1  LIG1       -0.1139
     24 H          -4.3752    7.0446   -0.0005 H       1  LIG1        0.1232
@<TRIPOS>BOND
     1    19    15    1
     2     7     3    1
     3    12    11    1
     4    24    23    1
     5    11    10    3
     6    23    22    3
     7    14     5    1
     8    14    13   ar
     9    14    15   ar
    10    17    18   ar
    11    17    20    1
    12    17    16   ar
    13    22    16    1
    14     5     6   ar
    15     5     4   ar
    16    10     4    1
    17    13    21    1
    18    13    18   ar
    19    15    16   ar
    20     6     1   ar
    21     4     3   ar
    22     1     2   ar
    23     1     9    1
    24     3     2   ar
    25     2     8    1
