@<TRIPOS>MOLECULE
mol_data/noopt/geoms/mol2/6af13hi-12ah12fd.out
 43 45 0 0 0
SMALL
GASTEIGER

@<TRIPOS>ATOM
      1 C          -4.5775   -2.0270    0.0001 C.ar    1  LIG1        0.0284
      2 C          -3.1706   -2.0270    0.0001 C.ar    1  LIG1       -0.0430
      3 C          -2.5039   -0.8004    0.0001 C.ar    1  LIG1       -0.0504
      4 C          -3.2580    0.3743   -0.0001 C.ar    1  LIG1        0.0117
      5 C          -4.6612    0.2715   -0.0003 C.ar    1  LIG1        0.0966
      6 N          -5.3207   -0.9034   -0.0001 N.ar    1  LIG1       -0.2528
      7 H          -1.4054   -0.7607   -0.0009 H       1  LIG1        0.0625
      8 H          -2.5135   -3.1487    0.0004 H       1  LIG1        0.0633
      9 H          -5.2431   -3.1437    0.0002 H       1  LIG1        0.0830
     10 O          -2.6846    1.5410   -0.0003 O.3     2  HOH2       -0.2528
     11 H          -3.3554    2.2278   -0.0003 H       0  HOH0        0.2528
     12 C          -5.4065    1.3366   -0.0004 C.ar    1  LIG1        0.0872
     13 C          -5.0647    2.6523    0.0158 C.ar    1  LIG1        0.0554
     14 C          -6.2798    3.4100    0.0080 C.ar    1  LIG1       -0.0009
     15 C          -7.3107    2.5241   -0.0144 C.ar    1  LIG1        0.0874
     16 N          -6.7805    1.2536   -0.0191 N.ar    1  LIG1       -0.3489
     17 H          -7.3063    0.4102   -0.0343 H       1  LIG1        0.1661
     18 N          -3.8561    3.1306    0.0362 N.pl3   1  LIG1       -0.3561
     19 H          -3.2388    2.4968   -0.4299 H       1  LIG1        0.1424
     20 H          -3.8398    4.0152   -0.4300 H       1  LIG1        0.1424
     21 C          -6.3823    4.7062    0.0196 C.3     1  LIG1       -0.0358
     22 H          -7.2810    4.9884    0.5272 H       1  LIG1        0.0279
     23 H          -6.4112    5.0707   -0.9860 H       1  LIG1        0.0279
     24 H          -5.5391    5.1260    0.5271 H       1  LIG1        0.0279
     25 C          -8.5950    2.7246   -0.0290 C.ar    1  LIG1        0.1541
     26 C          -9.4176    3.8320   -0.0252 C.ar    1  LIG1        0.0071
     27 C         -10.7785    3.3380   -0.0501 C.ar    1  LIG1        0.0749
     28 C         -10.6973    1.9608   -0.0675 C.ar    1  LIG1        0.1948
     29 O          -9.3614    1.5585   -0.0551 O.2     1  LIG1       -0.4482
     30 H          -9.0667    5.0836   -0.0036 H       1  LIG1        0.0675
     31 N         -11.8512    4.0725   -0.0547 N.pl3   1  LIG1       -0.3549
     32 H         -11.6635    4.9335   -0.5273 H       1  LIG1        0.1424
     33 H         -12.5861    3.5862   -0.5273 H       1  LIG1        0.1424
     34 C         -11.5533    0.9827   -0.0921 C.ar    1  LIG1        0.2139
     35 C         -12.9289    0.8800   -0.1107 C.ar    1  LIG1        0.1836
     36 C         -13.2389   -0.5343   -0.1347 C.ar    1  LIG1        0.1315
     37 C         -12.0317   -1.2023   -0.1293 C.ar    1  LIG1        0.1138
     38 O         -10.9776   -0.2885   -0.1032 O.2     1  LIG1       -0.4546
     39 H         -11.6627   -2.4488   -0.1424 H       1  LIG1        0.1044
     40 O         -13.7990    1.8459   -0.1077 O.3     1  LIG1       -0.5023
     41 H         -14.6858    1.4782   -0.1070 H       1  LIG1        0.2923
     42 N         -15.4861   -1.5009   -0.1765 N.1     1  LIG1       -0.1906
     43 C         -14.4330   -1.0479   -0.1569 C.1     1  LIG1        0.1060
@<TRIPOS>BOND
     1    23    21    1
     2    33    31    1
     3    32    31    1
     4    20    18    1
     5    19    18    1
     6    42    43    3
     7    43    36    1
     8    39    37    1
     9    36    37   ar
    10    36    35   ar
    11    37    38   ar
    12    35    40    1
    13    35    34   ar
    14    40    41    1
    15    38    34   ar
    16    34    28    1
    17    28    29   ar
    18    28    27   ar
    19    29    25   ar
    20    31    27    1
    21    27    26   ar
    22    17    16    1
    23    25    26   ar
    24    25    15    1
    25    26    30    1
    26    16    15   ar
    27    16    12   ar
    28    15    14   ar
    29     7     3    1
    30    12     5    1
    31    12    13   ar
    32    11    10    1
    33     5     6   ar
    34     5     4   ar
    35     6     1   ar
    36     4     3   ar
    37     1     2   ar
    38     1     9    1
    39     3     2   ar
    40     2     8    1
    41    14    13   ar
    42    14    21    1
    43    13    18    1
    44    21    24    1
    45    21    22    1
