@<TRIPOS>MOLECULE
mol_data/noopt/geoms/mol2/6af4fl12ff-13ee13fd-4ia12ai-12eh-.out
 92 96 0 0 0
SMALL
GASTEIGER

@<TRIPOS>ATOM
      1 C          -4.5775   -2.0270    0.0001 C.ar    1  LIG1        0.0285
      2 C          -3.1706   -2.0270    0.0001 C.ar    1  LIG1       -0.0401
      3 C          -2.5039   -0.8004    0.0001 C.ar    1  LIG1       -0.0166
      4 C          -3.2580    0.3743   -0.0001 C.ar    1  LIG1        0.1428
      5 C          -4.6612    0.2715   -0.0003 C.ar    1  LIG1        0.1158
      6 N          -5.3207   -0.9034   -0.0001 N.ar    1  LIG1       -0.2512
      7 H          -1.4054   -0.7607   -0.0009 H       1  LIG1        0.0655
      8 H          -2.5135   -3.1487    0.0004 H       1  LIG1        0.0634
      9 H          -5.2431   -3.1437    0.0002 H       1  LIG1        0.0830
     10 O          -2.6846    1.5410   -0.0003 O.3     1  LIG1       -0.5046
     11 H          -3.3554    2.2278   -0.0003 H       1  LIG1        0.2922
     12 C          -4.8076    2.6130    0.0003 C.ar    1  LIG1        0.1269
     13 C          -5.6584    3.7353    0.0017 C.ar    1  LIG1       -0.0080
     14 C          -5.4065    1.3366   -0.0004 C.ar    1  LIG1        0.0490
     15 C          -7.0444    3.5952    0.0018 C.ar    1  LIG1        0.0366
     16 H          -5.2172    4.7295    0.0025 H       1  LIG1        0.0661
     17 C          -6.7901    1.1962   -0.0003 C.ar    1  LIG1       -0.0015
     18 C          -7.6184    2.3233    0.0007 C.ar    1  LIG1        0.1876
     19 H          -7.2278    0.2012   -0.0008 H       1  LIG1        0.0664
     20 O          -3.5222    2.8072    0.0000 O.3     1  LIG1       -0.5061
     21 H          -3.3406    3.7499   -0.0000 H       1  LIG1        0.2922
     22 O          -8.9112    2.1860    0.0009 O.3     1  LIG1       -0.2872
     23 C          -9.5282    3.4760    0.0009 C.3     2  LIG2       -0.0309
     24 H         -10.5922    3.3625    0.0009 H       1  LIG1        0.0309
     25 H          -9.2271    4.0154    0.8746 H       0  HOH0        0.2052
     26 H          -9.2271    4.0154   -0.8727 H       0  HOH0        0.2052
     27 C          -7.8000    4.6531    0.0030 C.2     1  LIG1        0.0424
     28 C          -7.5844    6.0155    0.0187 C.2     1  LIG1        0.1676
     29 C          -8.8899    6.6422    0.0092 C.2     1  LIG1        0.1689
     30 C          -9.8170    5.6206   -0.0118 C.2     1  LIG1        0.0573
     31 O          -9.1694    4.3847   -0.0161 O.3     3  HOH3       -0.4105
     32 O          -6.4447    6.6406    0.0384 O.2     1  LIG1       -0.5029
     33 H          -6.5989    7.5881    0.0432 H       1  LIG1        0.2923
     34 O          -9.1158    7.9224    0.0188 O.2     1  LIG1       -0.5028
     35 H         -10.0627    8.0806    0.0212 H       1  LIG1        0.2923
     36 C         -11.1148    5.5478   -0.0280 C.ar    1  LIG1        0.0681
     37 C         -12.0535    6.5311   -0.0227 C.ar    1  LIG1        0.0661
     38 C         -13.3372    5.8971   -0.0467 C.ar    1  LIG1        0.0674
     39 C         -13.1266    4.5542   -0.0674 C.ar    1  LIG1        0.0838
     40 N         -11.7674    4.3360   -0.0556 N.ar    1  LIG1       -0.3508
     41 H         -11.3271    3.4449   -0.0660 H       1  LIG1        0.1660
     42 C         -11.8240    7.8105    0.0015 C.1     1  LIG1       -0.0663
     43 C         -11.6120    8.9926    0.0238 C.1     1  LIG1       -0.1138
     44 H         -11.4232   10.0456    0.0436 H       1  LIG1        0.1232
     45 C         -14.4929    6.4923   -0.0489 C.1     1  LIG1       -0.0662
     46 C         -15.5608    7.0423   -0.0510 C.1     1  LIG1       -0.1138
     47 H         -16.5121    7.5323   -0.0528 H       1  LIG1        0.1232
     48 C         -13.9731    3.5679   -0.0931 C.ar    1  LIG1        0.1079
     49 C         -15.3325    3.5722   -0.0943 C.ar    1  LIG1        0.1615
     50 C         -15.7644    2.2073   -0.1281 C.ar    1  LIG1        0.1189
     51 C         -14.6500    1.4290   -0.1478 C.ar    1  LIG1        0.0684
     52 N         -13.5511    2.2580   -0.1260 N.ar    1  LIG1       -0.3490
     53 H         -12.6034    1.9583   -0.1335 H       1  LIG1        0.1661
     54 O         -16.0964    4.6238   -0.0680 O.3     1  LIG1       -0.5034
     55 H         -17.0168    4.3511   -0.0615 H       1  LIG1        0.2923
     56 N         -18.0790    1.4147   -0.1477 N.1     1  LIG1       -0.1907
     57 C         -16.9943    1.7862   -0.1385 C.1     1  LIG1        0.1050
     58 C         -15.6741   -0.6811   -0.1968 C.ar    1  LIG1       -0.0406
     59 C         -15.4853   -2.0763   -0.2302 C.ar    1  LIG1       -0.0475
     60 C         -14.5249    0.1355   -0.1801 C.ar    1  LIG1        0.0026
     61 C         -14.2097   -2.6359   -0.2470 C.ar    1  LIG1        0.0176
     62 H         -16.3584   -2.7249   -0.2434 H       1  LIG1        0.0627
     63 C         -13.2512   -0.4226   -0.1968 C.ar    1  LIG1       -0.0517
     64 C         -13.0843   -1.8109   -0.2304 C.ar    1  LIG1       -0.0504
     65 H         -12.3807    0.2284   -0.1833 H       1  LIG1        0.0624
     66 C         -16.8891   -0.2181   -0.1827 C.3     1  LIG1       -0.0391
     67 H         -17.5284   -0.9094    0.3255 H       1  LIG1        0.0278
     68 H         -17.2326   -0.0873   -1.1877 H       1  LIG1        0.0278
     69 H         -16.9061    0.7233    0.3255 H       1  LIG1        0.0278
     70 H         -11.8912   -2.3269   -0.2458 H       1  LIG1        0.0625
     71 C         -14.0721   -3.9282   -0.2780 C.ar    1  LIG1        0.1361
     72 C         -14.9300   -5.0082   -0.3014 C.ar    1  LIG1       -0.0122
     73 C         -14.1015   -6.1955   -0.3317 C.ar    1  LIG1       -0.0010
     74 C         -12.7917   -5.7620   -0.3248 C.ar    1  LIG1        0.1747
     75 O         -12.7476   -4.3678   -0.2920 O.2     1  LIG1       -0.4514
     76 H         -16.2299   -4.9920   -0.2977 H       1  LIG1        0.0658
     77 C         -14.5346   -7.4212   -0.3597 C.3     1  LIG1       -0.0360
     78 H         -13.8332   -8.0587    0.1369 H       1  LIG1        0.0279
     79 H         -14.6461   -7.7370   -1.3760 H       1  LIG1        0.0279
     80 H         -15.4807   -7.4766    0.1369 H       1  LIG1        0.0279
     81 C         -11.6257   -6.3367   -0.3414 C.ar    1  LIG1        0.1871
     82 C         -11.1712   -7.6392   -0.3392 C.ar    1  LIG1        0.0940
     83 C          -9.7249   -7.5739   -0.3660 C.ar    1  LIG1        0.0792
     84 C          -9.3913   -6.2352   -0.3830 C.ar    1  LIG1        0.1145
     85 O         -10.5463   -5.4524   -0.3684 O.2     1  LIG1       -0.4567
     86 H          -8.2825   -5.5571   -0.4087 H       1  LIG1        0.1049
     87 C         -11.8796   -8.7290   -0.3174 C.1     1  LIG1       -0.0639
     88 C         -12.5341   -9.7360   -0.2972 C.1     1  LIG1       -0.1137
     89 H         -13.1172  -10.6330   -0.2793 H       1  LIG1        0.1232
     90 N          -8.9204   -8.5950   -0.3724 N.pl3   1  LIG1       -0.3546
     91 H          -9.3569   -9.3603   -0.8454 H       1  LIG1        0.1424
     92 H          -8.0742   -8.3497   -0.8455 H       1  LIG1        0.1424
@<TRIPOS>BOND
     1    79    77    1
     2    68    66    1
     3    26    31    1
     4    92    90    1
     5    91    90    1
     6    86    84    1
     7    84    85   ar
     8    84    83   ar
     9    90    83    1
    10    85    81   ar
    11    83    82   ar
    12    77    73    1
    13    77    80    1
    14    77    78    1
    15    81    82   ar
    16    81    74    1
    17    82    87    1
    18    73    74   ar
    19    73    72   ar
    20    74    75   ar
    21    87    88    3
    22    72    76    1
    23    72    71   ar
    24    88    89    1
    25    75    71   ar
    26    71    61    1
    27    61    64   ar
    28    61    59   ar
    29    70    64    1
    30    62    59    1
    31    64    63   ar
    32    59    58   ar
    33    63    65    1
    34    63    60   ar
    35    58    66    1
    36    58    60   ar
    37    66    69    1
    38    66    67    1
    39    60    51    1
    40    51    50   ar
    41    51    52   ar
    42    56    57    3
    43    57    50    1
    44    53    52    1
    45    50    49   ar
    46    52    48   ar
    47    49    48   ar
    48    49    54    1
    49    48    39    1
    50    54    55    1
    51    39    40   ar
    52    39    38   ar
    53    41    40    1
    54    40    36   ar
    55    47    46    1
    56    46    45    3
    57    45    38    1
    58    38    37   ar
    59    36    37   ar
    60    36    30    1
    61    37    42    1
    62    31    25    1
    63    30    29    2
    64     7     3    1
    65    19    17    1
    66    14    17   ar
    67    14     5    1
    68    14    12   ar
    69    11    10    1
    70    17    18   ar
    71     5     6   ar
    72     5     4   ar
    73    10     4    1
    74     6     1   ar
    75     4     3   ar
    76    21    20    1
    77    20    12    1
    78     3     2   ar
    79     2     1   ar
    80     2     8    1
    81     1     9    1
    82    12    13   ar
    83    18    22    1
    84    18    15   ar
    85    23    24    1
    86    42    43    3
    87    13    15   ar
    88    13    16    1
    89    15    27    1
    90    27    28    2
    91    29    28    1
    92    29    34    1
    93    28    32    1
    94    34    35    1
    95    43    44    1
    96    32    33    1
