@<TRIPOS>MOLECULE
mol_data/noopt/geoms/mol2/6af4dd13la-12ha-.out
 45 45 0 0 0
SMALL
GASTEIGER

@<TRIPOS>ATOM
      1 C          -4.5775   -2.0270    0.0001 C.ar    1  LIG1        0.0285
      2 C          -3.1706   -2.0270    0.0001 C.ar    1  LIG1       -0.0401
      3 C          -2.5039   -0.8004    0.0001 C.ar    1  LIG1       -0.0166
      4 C          -3.2580    0.3743   -0.0001 C.ar    1  LIG1        0.1424
      5 C          -4.6612    0.2715   -0.0003 C.ar    1  LIG1        0.1099
      6 N          -5.3207   -0.9034   -0.0001 N.ar    1  LIG1       -0.2516
      7 H          -1.4054   -0.7607   -0.0009 H       1  LIG1        0.0655
      8 H          -2.5135   -3.1487    0.0004 H       1  LIG1        0.0634
      9 H          -5.2431   -3.1437    0.0002 H       1  LIG1        0.0830
     10 O          -2.6846    1.5410   -0.0003 O.3     1  LIG1       -0.5046
     11 H          -3.3554    2.2278   -0.0003 H       1  LIG1        0.2922
     12 C          -4.8076    2.6130    0.0003 C.3     1  LIG1        0.1327
     13 C          -5.6584    3.7353    0.0017 C.3     2  LIG2        0.0000
     14 C          -5.4065    1.3366   -0.0004 C.2     1  LIG1        0.0064
     15 C          -7.0444    3.5952    0.0018 C.2     1  LIG1        0.0299
     16 H          -5.2172    4.7295    0.0025 H       2  LIG2        0.0194
     17 C          -6.7901    1.1962   -0.0003 C.2     1  LIG1       -0.0367
     18 C          -7.6184    2.3233    0.0007 C.2     1  LIG1        0.0620
     19 H          -7.2278    0.2012   -0.0008 H       1  LIG1        0.0634
     20 N          -2.3885    2.9785   -0.0002 N.1     1  LIG1       -0.1955
     21 C          -3.5222    2.8072    0.0000 C.1     1  LIG1        0.0780
     22 N         -10.0513    2.0648    0.0011 N.1     1  LIG1       -0.1908
     23 C          -8.9112    2.1860    0.0009 C.1     1  LIG1        0.0998
     24 C          -7.8000    4.6531    0.0030 C.ar    1  LIG1        0.0962
     25 C          -7.4710    5.9719    0.0201 C.ar    1  LIG1        0.2048
     26 C          -8.6934    6.7178    0.0136 C.ar    1  LIG1        0.0142
     27 C          -9.7156    5.8220   -0.0089 C.ar    1  LIG1        0.0881
     28 N          -9.1732    4.5567   -0.0150 N.ar    1  LIG1       -0.3486
     29 H          -9.6908    3.7083   -0.0306 H       1  LIG1        0.1661
     30 O          -6.2670    6.4620    0.0402 O.3     1  LIG1       -0.2856
     31 C          -5.3168    5.3934    0.0475 C.3     3  LIG3       -0.0776
     32 H          -4.3260    5.7972    0.0639 H       2  LIG2        0.0194
     33 H          -5.4690    4.7866    0.9156 H       2  LIG2        0.0194
     34 H          -5.4442    4.7967   -0.8315 H       2  LIG2        0.0194
     35 H          -8.8084    8.0127    0.0263 H       1  LIG1        0.0678
     36 C         -11.0019    6.0100   -0.0226 C.ar    1  LIG1        0.1715
     37 C         -11.8349    7.1096   -0.0330 C.ar    1  LIG1        0.0724
     38 C         -13.1912    6.6023   -0.0463 C.ar    1  LIG1       -0.0025
     39 C         -13.0969    5.2258   -0.0433 C.ar    1  LIG1        0.0945
     40 O         -11.7571    4.8365   -0.0289 O.2     1  LIG1       -0.4596
     41 H         -13.9436    4.2394   -0.0506 H       1  LIG1        0.1030
     42 N         -11.4960    8.3646   -0.0312 N.pl3   1  LIG1       -0.3550
     43 H         -10.6207    8.4741   -0.5022 H       1  LIG1        0.1424
     44 H         -12.1972    8.8999   -0.5022 H       1  LIG1        0.1424
     45 H         -14.2708    7.3264   -0.0586 H       1  LIG1        0.0668
@<TRIPOS>BOND
     1    34    31    1
     2    44    42    1
     3    43    42    1
     4    45    38    1
     5    41    39    1
     6    38    39   ar
     7    38    37   ar
     8    39    40   ar
     9    37    42    1
    10    37    36   ar
    11    29    28    1
    12    40    36   ar
    13    36    27    1
    14    28    27   ar
    15    28    24   ar
    16    27    26   ar
    17     7     3    1
    18    19    17    1
    19    14    17    2
    20    14     5    1
    21    14    12    1
    22    11    10    1
    23    17    18    1
    24    10     4    1
    25     5     6   ar
    26     5     4   ar
    27    20    21    3
    28     6     1   ar
    29     4     3   ar
    30    21    12    1
    31     1     2   ar
    32     1     9    1
    33     2     3   ar
    34     2     8    1
    35    18    23    1
    36    18    15    2
    37    23    22    3
    38    15    24    1
    39    16    31    1
    40    24    25   ar
    41    26    25   ar
    42    26    35    1
    43    25    30    1
    44    31    32    1
    45    31    33    1
