@<TRIPOS>MOLECULE
mol_data/noopt/geoms/mol2/6af6af-6af.out
 32 34 0 0 0
SMALL
GASTEIGER

@<TRIPOS>ATOM
      1 C          -4.5775   -2.0270    0.0001 C.ar    1  LIG1        0.0285
      2 C          -3.1706   -2.0270    0.0001 C.ar    1  LIG1       -0.0401
      3 C          -2.5039   -0.8004    0.0001 C.ar    1  LIG1       -0.0166
      4 C          -3.2580    0.3743   -0.0001 C.ar    1  LIG1        0.1428
      5 C          -4.6612    0.2715   -0.0003 C.ar    1  LIG1        0.1138
      6 N          -5.3207   -0.9034   -0.0001 N.ar    1  LIG1       -0.2513
      7 H          -1.4054   -0.7607   -0.0009 H       1  LIG1        0.0655
      8 H          -2.5135   -3.1487    0.0004 H       1  LIG1        0.0634
      9 H          -5.2431   -3.1437    0.0002 H       1  LIG1        0.0830
     10 O          -2.6846    1.5410   -0.0003 O.3     1  LIG1       -0.5046
     11 H          -3.3554    2.2278   -0.0003 H       1  LIG1        0.2922
     12 C          -4.8196    2.6153   -0.0003 C.ar    1  LIG1        0.0378
     13 C          -5.4065    1.3366   -0.0004 C.ar    1  LIG1        0.0255
     14 C          -6.7994    1.2424   -0.0003 C.ar    1  LIG1       -0.0073
     15 C          -7.5524    2.4178   -0.0003 C.ar    1  LIG1        0.1434
     16 C          -6.8736    3.6502   -0.0004 C.ar    1  LIG1        0.1138
     17 N          -5.5307    3.7594   -0.0003 N.ar    1  LIG1       -0.2506
     18 H          -7.2937    0.2606   -0.0014 H       1  LIG1        0.0662
     19 H          -3.5271    2.7543   -0.0003 H       1  LIG1        0.0836
     20 O          -8.8520    2.3834   -0.0004 O.3     1  LIG1       -0.5046
     21 H          -9.1484    1.4703   -0.0004 H       1  LIG1        0.2922
     22 C          -8.9376    4.7719   -0.0001 C.ar    1  LIG1        0.0371
     23 C          -7.5307    4.7719   -0.0003 C.ar    1  LIG1        0.0255
     24 C          -6.8640    5.9985   -0.0001 C.ar    1  LIG1       -0.0079
     25 C          -7.6181    7.1732    0.0002 C.ar    1  LIG1        0.1355
     26 C          -9.0213    7.0704    0.0002 C.ar    1  LIG1        0.0690
     27 N          -9.6808    5.8955    0.0002 N.ar    1  LIG1       -0.2590
     28 H          -5.7655    6.0382   -0.0012 H       1  LIG1        0.0661
     29 H          -9.7666    8.1355    0.0005 H       1  LIG1        0.0867
     30 H          -9.6032    3.6552   -0.0002 H       1  LIG1        0.0836
     31 O          -7.0447    8.3399    0.0002 O.3     1  LIG1       -0.5052
     32 H          -7.7156    9.0266    0.0002 H       1  LIG1        0.2922
@<TRIPOS>BOND
     1    18    14    1
     2    28    24    1
     3     7     3    1
     4    21    20    1
     5    13    14   ar
     6    13     5    1
     7    13    12   ar
     8    20    15    1
     9    16    15   ar
    10    16    23    1
    11    16    17   ar
    12    11    10    1
    13    14    15   ar
    14    10     4    1
    15     5     6   ar
    16     5     4   ar
    17    23    22   ar
    18    23    24   ar
    19    12    17   ar
    20    12    19    1
    21    30    22    1
    22     6     1   ar
    23     4     3   ar
    24    22    27   ar
    25    24    25   ar
    26     1     2   ar
    27     1     9    1
    28     3     2   ar
    29     2     8    1
    30    27    26   ar
    31    26    25   ar
    32    26    29    1
    33    25    31    1
    34    31    32    1
