@<TRIPOS>MOLECULE
mol_data/noopt/geoms/mol2/6af6af-4af6af.out
 43 46 0 0 0
SMALL
GASTEIGER

@<TRIPOS>ATOM
      1 C          -4.5775   -2.0270    0.0001 C.ar    1  LIG1        0.0285
      2 C          -3.1706   -2.0270    0.0001 C.ar    1  LIG1       -0.0401
      3 C          -2.5039   -0.8004    0.0001 C.ar    1  LIG1       -0.0166
      4 C          -3.2580    0.3743   -0.0001 C.ar    1  LIG1        0.1428
      5 C          -4.6612    0.2715   -0.0003 C.ar    1  LIG1        0.1138
      6 N          -5.3207   -0.9034   -0.0001 N.ar    1  LIG1       -0.2513
      7 H          -1.4054   -0.7607   -0.0009 H       1  LIG1        0.0655
      8 H          -2.5135   -3.1487    0.0004 H       1  LIG1        0.0634
      9 H          -5.2431   -3.1437    0.0002 H       1  LIG1        0.0830
     10 O          -2.6846    1.5410   -0.0003 O.3     1  LIG1       -0.5046
     11 H          -3.3554    2.2278   -0.0003 H       1  LIG1        0.2922
     12 C          -4.8196    2.6153   -0.0003 C.ar    1  LIG1        0.0378
     13 C          -5.4065    1.3366   -0.0004 C.ar    1  LIG1        0.0255
     14 C          -6.7994    1.2424   -0.0003 C.ar    1  LIG1       -0.0073
     15 C          -7.5524    2.4178   -0.0003 C.ar    1  LIG1        0.1433
     16 C          -6.8736    3.6502   -0.0004 C.ar    1  LIG1        0.1124
     17 N          -5.5307    3.7594   -0.0003 N.ar    1  LIG1       -0.2507
     18 H          -7.2937    0.2606   -0.0014 H       1  LIG1        0.0662
     19 H          -3.5271    2.7543   -0.0003 H       1  LIG1        0.0836
     20 O          -8.8520    2.3834   -0.0004 O.3     1  LIG1       -0.5046
     21 H          -9.1484    1.4703   -0.0004 H       1  LIG1        0.2922
     22 C          -6.8310    5.9958    0.0005 C.ar    1  LIG1       -0.0516
     23 C          -7.5886    7.1830    0.0022 C.ar    1  LIG1       -0.0499
     24 C          -7.5307    4.7718   -0.0003 C.ar    1  LIG1        0.0074
     25 C          -8.9814    7.1551    0.0023 C.ar    1  LIG1        0.0252
     26 H          -7.0688    8.1385    0.0030 H       1  LIG1        0.0625
     27 C          -8.9211    4.7434   -0.0001 C.ar    1  LIG1       -0.0103
     28 C          -9.6560    5.9336    0.0011 C.ar    1  LIG1        0.1252
     29 H          -9.4376    3.7869   -0.0006 H       1  LIG1        0.0661
     30 H          -5.5341    6.0859    0.0002 H       1  LIG1        0.0624
     31 O         -10.9556    5.9008    0.0014 O.3     1  LIG1       -0.5061
     32 H         -11.2531    4.9880    0.0015 H       1  LIG1        0.2922
     33 C         -11.0562    8.2567    0.0047 C.ar    1  LIG1        0.0356
     34 C          -9.6493    8.2703    0.0037 C.ar    1  LIG1        0.0072
     35 C          -8.9946    9.5034    0.0047 C.ar    1  LIG1       -0.0094
     36 C          -9.7600   10.6707    0.0063 C.ar    1  LIG1        0.1354
     37 C         -11.1621   10.5543    0.0069 C.ar    1  LIG1        0.0690
     38 N         -11.8102    9.3730    0.0062 N.ar    1  LIG1       -0.2590
     39 H          -7.8965    9.5537    0.0030 H       1  LIG1        0.0661
     40 H         -11.9177   11.6121    0.0085 H       1  LIG1        0.0867
     41 H         -11.7109    7.1336    0.0040 H       1  LIG1        0.0836
     42 O          -9.1979   11.8429    0.0071 O.3     1  LIG1       -0.5052
     43 H          -9.8754   12.5231    0.0072 H       1  LIG1        0.2922
@<TRIPOS>BOND
     1    18    14    1
     2     7     3    1
     3    29    27    1
     4    21    20    1
     5    13    14   ar
     6    13     5    1
     7    13    12   ar
     8    20    15    1
     9    16    15   ar
    10    16    24    1
    11    16    17   ar
    12    11    10    1
    13    14    15   ar
    14     5     6   ar
    15     5     4   ar
    16    10     4    1
    17    24    27   ar
    18    24    22   ar
    19    12    17   ar
    20    12    19    1
    21     6     1   ar
    22     4     3   ar
    23    27    28   ar
    24     1     2   ar
    25     1     9    1
    26     3     2   ar
    27     2     8    1
    28    30    22    1
    29    22    23   ar
    30    28    31    1
    31    28    25   ar
    32    31    32    1
    33    23    25   ar
    34    23    26    1
    35    25    34    1
    36    39    35    1
    37    34    33   ar
    38    34    35   ar
    39    41    33    1
    40    33    38   ar
    41    35    36   ar
    42    38    37   ar
    43    36    37   ar
    44    36    42    1
    45    37    40    1
    46    42    43    1
