@<TRIPOS>MOLECULE
mol_data/noopt/geoms/mol2/6af6af-.out
 22 23 0 0 0
SMALL
GASTEIGER

@<TRIPOS>ATOM
      1 C          -4.5775   -2.0270    0.0001 C.ar    1  LIG1        0.0285
      2 C          -3.1706   -2.0270    0.0001 C.ar    1  LIG1       -0.0401
      3 C          -2.5039   -0.8004    0.0001 C.ar    1  LIG1       -0.0166
      4 C          -3.2580    0.3743   -0.0001 C.ar    1  LIG1        0.1428
      5 C          -4.6612    0.2715   -0.0003 C.ar    1  LIG1        0.1138
      6 N          -5.3207   -0.9034   -0.0001 N.ar    1  LIG1       -0.2513
      7 H          -1.4054   -0.7607   -0.0009 H       1  LIG1        0.0655
      8 H          -2.5135   -3.1487    0.0004 H       1  LIG1        0.0634
      9 H          -5.2431   -3.1437    0.0002 H       1  LIG1        0.0830
     10 O          -2.6846    1.5410   -0.0003 O.3     1  LIG1       -0.5046
     11 H          -3.3554    2.2278   -0.0003 H       1  LIG1        0.2922
     12 C          -4.8196    2.6153   -0.0003 C.ar    1  LIG1        0.0371
     13 C          -5.4065    1.3366   -0.0004 C.ar    1  LIG1        0.0255
     14 C          -6.7994    1.2424   -0.0003 C.ar    1  LIG1       -0.0079
     15 C          -7.5524    2.4178   -0.0003 C.ar    1  LIG1        0.1355
     16 C          -6.8736    3.6502   -0.0004 C.ar    1  LIG1        0.0690
     17 N          -5.5307    3.7594   -0.0003 N.ar    1  LIG1       -0.2590
     18 H          -7.2937    0.2606   -0.0014 H       1  LIG1        0.0661
     19 H          -7.5307    4.7719   -0.0003 H       1  LIG1        0.0867
     20 H          -3.5271    2.7543   -0.0003 H       1  LIG1        0.0836
     21 O          -8.8520    2.3834   -0.0004 O.3     1  LIG1       -0.5052
     22 H          -9.1484    1.4703   -0.0004 H       1  LIG1        0.2922
@<TRIPOS>BOND
     1    18    14    1
     2     7     3    1
     3    22    21    1
     4    13    14   ar
     5    13     5    1
     6    13    12   ar
     7    21    15    1
     8    16    15   ar
     9    16    19    1
    10    16    17   ar
    11    11    10    1
    12    14    15   ar
    13     5     6   ar
    14     5     4   ar
    15    10     4    1
    16    12    17   ar
    17    12    20    1
    18     6     1   ar
    19     4     3   ar
    20     1     2   ar
    21     1     9    1
    22     3     2   ar
    23     2     8    1
