@<TRIPOS>MOLECULE
mol_data/noopt/geoms/mol2/6ag.out
 12 12 0 0 0
SMALL
GASTEIGER

@<TRIPOS>ATOM
      1 C          -4.5775   -2.0270    0.0001 C.ar    1  LIG1        0.0276
      2 C          -3.1706   -2.0270    0.0001 C.ar    1  LIG1       -0.0426
      3 C          -2.5039   -0.8004    0.0001 C.ar    1  LIG1       -0.0457
      4 C          -3.2580    0.3743   -0.0001 C.ar    1  LIG1        0.0229
      5 C          -4.6612    0.2715   -0.0003 C.ar    1  LIG1        0.0407
      6 N          -5.3207   -0.9034   -0.0001 N.ar    1  LIG1       -0.2622
      7 H          -1.4054   -0.7607   -0.0009 H       1  LIG1        0.0629
      8 H          -2.5135   -3.1487    0.0004 H       1  LIG1        0.0633
      9 H          -5.4065    1.3366   -0.0004 H       1  LIG1        0.0841
     10 H          -5.2431   -3.1437    0.0002 H       1  LIG1        0.0829
     11 S          -2.6846    1.5410   -0.0003 S.3     1  LIG1       -0.1412
     12 H          -3.6000    2.4781   -0.0004 H       1  LIG1        0.1072
@<TRIPOS>BOND
     1     7     3    1
     2     9     5    1
     3    12    11    1
     4     5     4   ar
     5     5     6   ar
     6    11     4    1
     7     4     3   ar
     8     6     1   ar
     9     1     2   ar
    10     1    10    1
    11     2     3   ar
    12     2     8    1
