@<TRIPOS>MOLECULE
mol_data/noopt/geoms/mol2/6ah12ef(310)12fh(160)6ee(120).out
 46 49 0 0 0
SMALL
GASTEIGER

@<TRIPOS>ATOM
      1 C          -4.5775   -2.0270    0.0001 C.ar    1  LIG1        0.0285
      2 C          -3.1706   -2.0270    0.0001 C.ar    1  LIG1       -0.0418
      3 C          -2.5039   -0.8004    0.0001 C.ar    1  LIG1       -0.0374
      4 C          -3.2580    0.3743   -0.0001 C.ar    1  LIG1        0.0540
      5 C          -4.6612    0.2715   -0.0003 C.ar    1  LIG1        0.1278
      6 N          -5.3207   -0.9034   -0.0001 N.ar    1  LIG1       -0.2500
      7 H          -1.4054   -0.7607   -0.0009 H       1  LIG1        0.0637
      8 H          -2.5135   -3.1487    0.0004 H       1  LIG1        0.0633
      9 H          -5.2431   -3.1437    0.0002 H       1  LIG1        0.0830
     10 N          -2.6846    1.5410   -0.0003 N.pl3   1  LIG1       -0.3562
     11 H          -1.8048    1.4799   -0.4718 H       1  LIG1        0.1424
     12 H          -3.2703    2.2002   -0.4718 H       1  LIG1        0.1424
     13 C          -5.4065    1.3366   -0.0004 C.ar    1  LIG1        0.1747
     14 C          -5.4220    2.5260   -0.6991 C.ar    1  LIG1        0.1141
     15 C          -6.5450    3.2886   -0.1951 C.ar    1  LIG1        0.1823
     16 C          -7.1417    2.5143    0.7786 C.ar    1  LIG1        0.2167
     17 O          -6.4578    1.3059    0.9169 O.2     1  LIG1       -0.4449
     18 C          -4.6021    2.9119   -1.6312 C.1     1  LIG1       -0.0621
     19 C          -3.8445    3.2685   -2.4925 C.1     1  LIG1       -0.1137
     20 H          -3.1696    3.5861   -3.2597 H       1  LIG1        0.1232
     21 O          -6.9000    4.4720   -0.5998 O.3     1  LIG1       -0.5023
     22 H          -7.8543    4.5036   -0.6995 H       1  LIG1        0.2923
     23 C          -8.1628    2.6482    1.5718 C.ar    1  LIG1        0.2173
     24 C          -8.8773    1.8123    2.4047 C.ar    1  LIG1        0.1877
     25 C          -9.9158    2.6193    3.0109 C.ar    1  LIG1        0.1139
     26 C          -9.7668    3.8954    2.5080 C.ar    1  LIG1        0.1628
     27 O          -8.6925    3.9385    1.6186 O.2     1  LIG1       -0.4458
     28 O          -8.6792    0.5458    2.6215 O.3     1  LIG1       -0.5019
     29 H          -7.7363    0.3735    2.6749 H       1  LIG1        0.2924
     30 N         -10.8037    2.1973    3.8615 N.pl3   1  LIG1       -0.3522
     31 H         -11.6604    2.6942    3.7231 H       1  LIG1        0.1425
     32 H         -10.9595    1.2193    3.7231 H       1  LIG1        0.1425
     33 C         -10.2400    6.0543    1.7120 C.ar    1  LIG1        0.1239
     34 C         -10.3786    5.0312    2.6678 C.ar    1  LIG1        0.0542
     35 C         -11.1845    5.2658    3.7834 C.ar    1  LIG1       -0.0315
     36 C         -11.8188    6.5032    3.9058 C.ar    1  LIG1        0.0435
     37 C         -11.6184    7.4634    2.8971 C.ar    1  LIG1        0.0444
     38 N         -10.8446    7.2538    1.8142 N.ar    1  LIG1       -0.2448
     39 H         -11.3159    4.4907    4.5516 H       1  LIG1        0.0638
     40 H         -12.1875    8.6301    2.9663 H       1  LIG1        0.0842
     41 C          -9.5007    5.8833    0.6564 C.1     1  LIG1       -0.0491
     42 C          -8.8175    5.7253   -0.3189 C.1     1  LIG1       -0.1124
     43 H          -8.2090    5.5845   -1.1877 H       1  LIG1        0.1232
     44 C         -12.5792    6.7706    4.9258 C.1     1  LIG1       -0.0681
     45 C         -13.2817    7.0177    5.8683 C.1     1  LIG1       -0.1139
     46 H         -13.9075    7.2378    6.7078 H       1  LIG1        0.1232
@<TRIPOS>BOND
     1    20    19    1
     2    19    18    3
     3    18    14    1
     4    43    42    1
     5    22    21    1
     6    14    15   ar
     7    14    13   ar
     8    21    15    1
     9    12    10    1
    10    11    10    1
    11    42    41    3
    12    15    16   ar
    13     7     3    1
    14    13     5    1
    15    13    17   ar
    16    10     4    1
    17     5     6   ar
    18     5     4   ar
    19     6     1   ar
    20     4     3   ar
    21     1     2   ar
    22     1     9    1
    23     3     2   ar
    24     2     8    1
    25    41    33    1
    26    16    17   ar
    27    16    23    1
    28    23    27   ar
    29    23    24   ar
    30    27    26   ar
    31    33    38   ar
    32    33    34   ar
    33    38    37   ar
    34    24    28    1
    35    24    25   ar
    36    26    34    1
    37    26    25   ar
    38    28    29    1
    39    34    35   ar
    40    37    40    1
    41    37    36   ar
    42    25    30    1
    43    32    30    1
    44    31    30    1
    45    35    36   ar
    46    35    39    1
    47    36    44    1
    48    44    45    3
    49    45    46    1
