@<TRIPOS>MOLECULE
mol_data/noopt/geoms/mol2/6ah13eh-6fa-13df12hl-6af12di-13he-.out
 91 98 0 0 0
SMALL
GASTEIGER

@<TRIPOS>ATOM
      1 C          -4.5775   -2.0270    0.0001 C.ar    1  LIG1        0.0284
      2 C          -3.1706   -2.0270    0.0001 C.ar    1  LIG1       -0.0418
      3 C          -2.5039   -0.8004    0.0001 C.ar    1  LIG1       -0.0375
      4 C          -3.2580    0.3743   -0.0001 C.ar    1  LIG1        0.0524
      5 C          -4.6612    0.2715   -0.0003 C.ar    1  LIG1        0.1089
      6 N          -5.3207   -0.9034   -0.0001 N.ar    1  LIG1       -0.2516
      7 H          -1.4054   -0.7607   -0.0009 H       1  LIG1        0.0637
      8 H          -2.5135   -3.1487    0.0004 H       1  LIG1        0.0633
      9 H          -5.2431   -3.1437    0.0002 H       1  LIG1        0.0830
     10 N          -2.6846    1.5410   -0.0003 N.pl3   1  LIG1       -0.3563
     11 H          -1.8048    1.4799   -0.4718 H       1  LIG1        0.1424
     12 H          -3.2703    2.2002   -0.4718 H       1  LIG1        0.1424
     13 C          -5.4065    1.3366   -0.0004 C.ar    1  LIG1        0.0846
     14 C          -5.0647    2.6523    0.0158 C.ar    1  LIG1        0.0727
     15 C          -6.2798    3.4100    0.0080 C.ar    1  LIG1        0.0666
     16 C          -7.3107    2.5241   -0.0144 C.ar    1  LIG1        0.0742
     17 N          -6.7805    1.2536   -0.0191 N.ar    1  LIG1       -0.3503
     18 H          -7.3063    0.4102   -0.0343 H       1  LIG1        0.1660
     19 C          -3.8561    3.1306    0.0362 C.1     1  LIG1       -0.0656
     20 C          -2.7393    3.5726    0.0551 C.1     1  LIG1       -0.1138
     21 H          -1.7446    3.9664    0.0719 H       1  LIG1        0.1232
     22 N          -6.3823    4.7059    0.0196 N.pl3   1  LIG1       -0.3554
     23 H          -5.5949    5.1067   -0.4488 H       1  LIG1        0.1424
     24 H          -7.2228    4.9780   -0.4488 H       1  LIG1        0.1424
     25 C          -9.4846    1.6350   -0.0579 C.ar    1  LIG1        0.2223
     26 C          -8.5951    2.7246   -0.0290 C.ar    1  LIG1        0.0615
     27 C          -9.1237    4.0166   -0.0160 C.ar    1  LIG1       -0.0454
     28 C         -10.5104    4.1755   -0.0326 C.ar    1  LIG1       -0.0334
     29 C         -11.3180    3.0238   -0.0616 C.ar    1  LIG1        0.0923
     30 N         -10.8249    1.7700   -0.0742 N.ar    1  LIG1       -0.2110
     31 H          -8.4598    4.8925    0.0056 H       1  LIG1        0.0626
     32 O          -9.0404    0.4132   -0.0708 O.3     1  LIG1       -0.4919
     33 H          -8.0805    0.4213   -0.0740 H       1  LIG1        0.2937
     34 H         -11.0516    5.3575   -0.0217 H       1  LIG1        0.0640
     35 C         -12.6143    3.1202   -0.0777 C.ar    1  LIG1        0.0868
     36 C         -13.4173    4.2171   -0.0725 C.ar    1  LIG1        0.1205
     37 C         -14.7725    3.7552   -0.0965 C.ar    1  LIG1        0.1632
     38 C         -14.7381    2.3963   -0.1172 C.ar    1  LIG1        0.1278
     39 N         -13.4188    2.0034   -0.1053 N.ar    1  LIG1       -0.3465
     40 H         -13.0979    1.0626   -0.1157 H       1  LIG1        0.1662
     41 N         -12.6764    6.5484   -0.0270 N.1     1  LIG1       -0.1907
     42 C         -13.0236    5.4558   -0.0483 C.1     1  LIG1        0.1050
     43 O         -15.8412    4.4955   -0.0987 O.3     1  LIG1       -0.5034
     44 H         -16.6199    3.9341   -0.0993 H       1  LIG1        0.2923
     45 C         -15.7055    1.5283   -0.1429 C.ar    1  LIG1        0.1796
     46 C         -17.0836    1.5915   -0.1476 C.ar    1  LIG1        0.1155
     47 C         -17.5614    0.2250   -0.1833 C.ar    1  LIG1        0.1871
     48 C         -16.4430   -0.5830   -0.1982 C.ar    1  LIG1        0.1806
     49 O         -15.2866    0.1974   -0.1740 O.2     1  LIG1       -0.4475
     50 N         -17.8314    2.6547   -0.1247 N.pl3   1  LIG1       -0.3521
     51 H         -17.3601    3.4038   -0.5902 H       1  LIG1        0.1425
     52 H         -18.6957    2.4643   -0.5902 H       1  LIG1        0.1425
     53 O         -18.8086   -0.1414   -0.1979 O.3     1  LIG1       -0.4896
     54 C         -19.6465    1.0174   -0.2034 C.3     1  LIG1        0.0791
     55 H         -20.6729    0.7154   -0.2156 H       1  LIG1        0.0660
     56 H         -19.4563    1.5992    0.6743 H       1  LIG1        0.0660
     57 H         -19.4372    1.6048   -1.0729 H       1  LIG1        0.0660
     58 C         -14.9111   -2.3632   -0.2453 C.ar    1  LIG1        0.0394
     59 C         -16.2265   -1.8644   -0.2288 C.ar    1  LIG1        0.0426
     60 C         -17.2849   -2.7747   -0.2456 C.ar    1  LIG1       -0.0057
     61 C         -16.9965   -4.1401   -0.2782 C.ar    1  LIG1        0.1465
     62 C         -15.6481   -4.5414   -0.2928 C.ar    1  LIG1        0.1485
     63 N         -14.6148   -3.6770   -0.2768 N.ar    1  LIG1       -0.2475
     64 H         -18.3261   -2.4223   -0.2344 H       1  LIG1        0.0662
     65 H         -13.8927   -1.5553   -0.2306 H       1  LIG1        0.0837
     66 O         -17.9465   -5.0274   -0.2951 O.3     1  LIG1       -0.5045
     67 H         -17.5629   -5.9074   -0.2992 H       1  LIG1        0.2922
     68 C         -15.3290   -5.8013   -0.3231 C.ar    1  LIG1        0.1750
     69 C         -16.0255   -6.9918   -0.3459 C.ar    1  LIG1        0.1026
     70 C         -15.0374   -8.0500   -0.3754 C.ar    1  LIG1        0.0149
     71 C         -13.8021   -7.4355   -0.3687 C.ar    1  LIG1        0.1578
     72 O         -13.9557   -6.0491   -0.3367 O.2     1  LIG1       -0.4500
     73 N         -18.4517   -7.3078   -0.3390 N.1     1  LIG1       -0.1907
     74 C         -17.3147   -7.1597   -0.3423 C.1     1  LIG1        0.1033
     75 C         -15.2927   -9.3247   -0.4027 C.3     1  LIG1       -0.0348
     76 H         -14.5082   -9.8563    0.0941 H       1  LIG1        0.0279
     77 H         -15.3585   -9.6536   -1.4188 H       1  LIG1        0.0279
     78 H         -16.2215   -9.5131    0.0940 H       1  LIG1        0.0279
     79 C         -12.5665   -7.8395   -0.3849 C.ar    1  LIG1        0.1045
     80 C         -12.0496   -9.0968   -0.3796 C.ar    1  LIG1        0.0688
     81 C         -10.6232   -8.9728   -0.4037 C.ar    1  LIG1        0.0633
     82 C         -10.3312   -7.6452   -0.4244 C.ar    1  LIG1        0.0195
     83 N         -11.5181   -6.9478   -0.4125 N.ar    1  LIG1       -0.3556
     84 H         -11.6044   -5.9576   -0.4229 H       1  LIG1        0.1655
     85 H          -9.1841   -7.0341   -0.4501 H       1  LIG1        0.0820
     86 N         -12.7284  -10.2052   -0.3555 N.pl3   1  LIG1       -0.3553
     87 H         -13.6033  -10.0705   -0.8206 H       1  LIG1        0.1424
     88 H         -12.2107  -10.9233   -0.8207 H       1  LIG1        0.1424
     89 C          -9.7629   -9.9474   -0.4059 C.1     1  LIG1       -0.0663
     90 C          -8.9680  -10.8480   -0.4080 C.1     1  LIG1       -0.1138
     91 H          -8.2599  -11.6502   -0.4098 H       1  LIG1        0.1232
@<TRIPOS>BOND
     1    77    75    1
     2    57    54    1
     3    88    86    1
     4    87    86    1
     5    52    50    1
     6    51    50    1
     7    12    10    1
     8    11    10    1
     9    85    82    1
    10    24    22    1
    11    23    22    1
    12    82    83   ar
    13    82    81   ar
    14    84    83    1
    15    83    79   ar
    16    91    90    1
    17    90    89    3
    18    89    81    1
    19    81    80   ar
    20    75    70    1
    21    75    78    1
    22    75    76    1
    23    79    80   ar
    24    79    71    1
    25    80    86    1
    26    70    71   ar
    27    70    69   ar
    28    71    72   ar
    29    69    74    1
    30    69    68   ar
    31    74    73    3
    32    72    68   ar
    33    68    62    1
    34    67    66    1
    35    66    61    1
    36    62    61   ar
    37    62    63   ar
    38    61    60   ar
    39    63    58   ar
    40    60    64    1
    41    60    59   ar
    42    58    65    1
    43    58    59   ar
    44    59    48    1
    45    55    54    1
    46    54    53    1
    47    54    56    1
    48    48    47   ar
    49    48    49   ar
    50    53    47    1
    51    47    46   ar
    52    49    45   ar
    53    46    45   ar
    54    46    50    1
    55    45    38    1
    56    38    39   ar
    57    38    37   ar
    58    40    39    1
    59    39    35   ar
    60    44    43    1
    61    43    37    1
    62    37    36   ar
    63    35    36   ar
    64    35    29    1
    65    30    29   ar
    66    30    25   ar
    67    33    32    1
    68    36    42    1
    69    32    25    1
    70    29    28   ar
    71    25    26   ar
    72    42    41    3
    73    18    17    1
    74    28    34    1
    75    28    27   ar
    76    26    27   ar
    77    26    16    1
    78    17    16   ar
    79    17    13   ar
    80    27    31    1
    81    16    15   ar
    82     7     3    1
    83    13     5    1
    84    13    14   ar
    85     5     4   ar
    86     5     6   ar
    87    10     4    1
    88     4     3   ar
    89     6     1   ar
    90     3     2   ar
    91     1     2   ar
    92     1     9    1
    93     2     8    1
    94    15    14   ar
    95    15    22    1
    96    14    19    1
    97    19    20    3
    98    20    21    1
