@<TRIPOS>MOLECULE
mol_data/noopt/geoms/mol2/6ah6ah-.out
 24 25 0 0 0
SMALL
GASTEIGER

@<TRIPOS>ATOM
      1 C          -4.5775   -2.0270    0.0001 C.ar    1  LIG1        0.0284
      2 C          -3.1706   -2.0270    0.0001 C.ar    1  LIG1       -0.0418
      3 C          -2.5039   -0.8004    0.0001 C.ar    1  LIG1       -0.0375
      4 C          -3.2580    0.3743   -0.0001 C.ar    1  LIG1        0.0509
      5 C          -4.6612    0.2715   -0.0003 C.ar    1  LIG1        0.0930
      6 N          -5.3207   -0.9034   -0.0001 N.ar    1  LIG1       -0.2531
      7 H          -1.4054   -0.7607   -0.0009 H       1  LIG1        0.0637
      8 H          -2.5135   -3.1487    0.0004 H       1  LIG1        0.0633
      9 H          -5.2431   -3.1437    0.0002 H       1  LIG1        0.0830
     10 N          -2.6846    1.5410   -0.0003 N.pl3   1  LIG1       -0.3563
     11 H          -1.8048    1.4799   -0.4718 H       1  LIG1        0.1424
     12 H          -3.2703    2.2002   -0.4718 H       1  LIG1        0.1424
     13 C          -4.8196    2.6153   -0.0003 C.ar    1  LIG1        0.0369
     14 C          -5.4065    1.3366   -0.0004 C.ar    1  LIG1        0.0220
     15 C          -6.7994    1.2424   -0.0003 C.ar    1  LIG1       -0.0289
     16 C          -7.5524    2.4178   -0.0003 C.ar    1  LIG1        0.0435
     17 C          -6.8736    3.6502   -0.0004 C.ar    1  LIG1        0.0482
     18 N          -5.5307    3.7594   -0.0003 N.ar    1  LIG1       -0.2608
     19 H          -7.2937    0.2606   -0.0014 H       1  LIG1        0.0643
     20 H          -7.5307    4.7719   -0.0003 H       1  LIG1        0.0848
     21 H          -3.5271    2.7543   -0.0003 H       1  LIG1        0.0836
     22 N          -8.8520    2.3834   -0.0004 N.pl3   1  LIG1       -0.3568
     23 H          -9.2068    3.1908   -0.4718 H       1  LIG1        0.1424
     24 H          -9.1636    1.5584   -0.4719 H       1  LIG1        0.1424
@<TRIPOS>BOND
     1    24    22    1
     2    23    22    1
     3    12    10    1
     4    11    10    1
     5    19    15    1
     6     7     3    1
     7    14    15   ar
     8    14     5    1
     9    14    13   ar
    10    22    16    1
    11    17    16   ar
    12    17    20    1
    13    17    18   ar
    14    15    16   ar
    15     5     6   ar
    16     5     4   ar
    17    10     4    1
    18    13    18   ar
    19    13    21    1
    20     6     1   ar
    21     4     3   ar
    22     1     2   ar
    23     1     9    1
    24     3     2   ar
    25     2     8    1
