@<TRIPOS>MOLECULE
mol_data/noopt/geoms/mol2/6ah6ed12ha13fh-.out
 45 48 0 0 0
SMALL
GASTEIGER

@<TRIPOS>ATOM
      1 C          -4.5775   -2.0270    0.0001 C.ar    1  LIG1        0.0284
      2 C          -3.1706   -2.0270    0.0001 C.ar    1  LIG1       -0.0418
      3 C          -2.5039   -0.8004    0.0001 C.ar    1  LIG1       -0.0375
      4 C          -3.2580    0.3743   -0.0001 C.ar    1  LIG1        0.0510
      5 C          -4.6612    0.2715   -0.0003 C.ar    1  LIG1        0.0942
      6 N          -5.3207   -0.9034   -0.0001 N.ar    1  LIG1       -0.2530
      7 H          -1.4054   -0.7607   -0.0009 H       1  LIG1        0.0637
      8 H          -2.5135   -3.1487    0.0004 H       1  LIG1        0.0633
      9 H          -5.2431   -3.1437    0.0002 H       1  LIG1        0.0830
     10 N          -2.6846    1.5410   -0.0003 N.pl3   1  LIG1       -0.3563
     11 H          -1.8048    1.4799   -0.4718 H       1  LIG1        0.1424
     12 H          -3.2703    2.2002   -0.4718 H       1  LIG1        0.1424
     13 C          -6.8088    1.2233   -0.0003 C.ar    1  LIG1        0.1232
     14 C          -5.4065    1.3366   -0.0004 C.ar    1  LIG1        0.0372
     15 C          -4.8408    2.6129   -0.0003 C.ar    1  LIG1       -0.0302
     16 C          -5.6871    3.7231   -0.0003 C.ar    1  LIG1        0.0815
     17 C          -7.0774    3.5076   -0.0004 C.ar    1  LIG1        0.1265
     18 N          -7.6401    2.2834   -0.0003 N.ar    1  LIG1       -0.2333
     19 H          -3.7491    2.7410   -0.0014 H       1  LIG1        0.0638
     20 C          -7.3823    0.0566   -0.0003 C.1     1  LIG1       -0.0491
     21 C          -7.9122   -1.0214   -0.0003 C.1     1  LIG1       -0.1124
     22 H          -8.3842   -1.9816   -0.0003 H       1  LIG1        0.1232
     23 N          -4.7883    5.9986   -0.0004 N.1     1  LIG1       -0.1908
     24 C          -5.2095    4.9322   -0.0004 C.1     1  LIG1        0.1014
     25 C          -7.9061    4.5092   -0.0003 C.ar    1  LIG1        0.1757
     26 C          -7.7876    5.8836   -0.0002 C.ar    1  LIG1        0.0732
     27 C          -9.1342    6.4161   -0.0001 C.ar    1  LIG1        0.0072
     28 C          -9.9867    5.3313   -0.0002 C.ar    1  LIG1        0.1573
     29 O          -9.2531    4.1443   -0.0004 O.2     1  LIG1       -0.4497
     30 N          -6.6949    6.5880   -0.0001 N.pl3   1  LIG1       -0.3550
     31 H          -5.9723    6.0823   -0.4715 H       1  LIG1        0.1424
     32 H          -6.8571    7.4548   -0.4715 H       1  LIG1        0.1424
     33 H          -9.4503    7.6771   -0.0000 H       1  LIG1        0.0675
     34 C         -11.2762    5.1666   -0.0002 C.ar    1  LIG1        0.1260
     35 C         -12.2821    6.0810   -0.0005 C.ar    1  LIG1        0.1659
     36 C         -13.5178    5.3574    0.0009 C.ar    1  LIG1        0.0849
     37 C         -13.2127    4.0326    0.0002 C.ar    1  LIG1        0.0268
     38 N         -11.8414    3.9113    0.0000 N.ar    1  LIG1       -0.3537
     39 H         -11.3392    3.0536   -0.0005 H       1  LIG1        0.1656
     40 H         -13.9873    2.9886    0.0008 H       1  LIG1        0.0827
     41 O         -12.1437    7.3736   -0.0004 O.3     1  LIG1       -0.5030
     42 H         -13.0095    7.7885   -0.0004 H       1  LIG1        0.2923
     43 N         -14.7128    5.8693    0.0020 N.pl3   1  LIG1       -0.3540
     44 H         -14.6981    6.7512   -0.4691 H       1  LIG1        0.1425
     45 H         -15.3411    5.2502   -0.4691 H       1  LIG1        0.1425
@<TRIPOS>BOND
     1    12    10    1
     2    11    10    1
     3    32    30    1
     4    31    30    1
     5    45    43    1
     6    44    43    1
     7    19    15    1
     8     7     3    1
     9    39    38    1
    10    35    41    1
    11    35    34   ar
    12    35    36   ar
    13    23    24    3
    14    29    25   ar
    15    29    28   ar
    16    41    42    1
    17    14     5    1
    18    14    13   ar
    19    14    15   ar
    20    17    18   ar
    21    17    25    1
    22    17    16   ar
    23    24    16    1
    24    10     4    1
    25     5     4   ar
    26     5     6   ar
    27    13    20    1
    28    13    18   ar
    29    15    16   ar
    30    20    21    3
    31    21    22    1
    32    25    26   ar
    33    28    34    1
    34    28    27   ar
    35    26    30    1
    36    26    27   ar
    37    34    38   ar
    38    27    33    1
    39     4     3   ar
    40     6     1   ar
    41    38    37   ar
    42     1     2   ar
    43     1     9    1
    44     3     2   ar
    45     2     8    1
    46    37    40    1
    47    37    36   ar
    48    36    43    1
