@<TRIPOS>MOLECULE
mol_data/noopt/geoms/mol2/6ah6id(50)4hd(190)13dd(340).out
 49 52 0 0 0
SMALL
GASTEIGER

@<TRIPOS>ATOM
      1 C          -4.5775   -2.0270    0.0001 C.ar    1  LIG1        0.0284
      2 C          -3.1706   -2.0270    0.0001 C.ar    1  LIG1       -0.0418
      3 C          -2.5039   -0.8004    0.0001 C.ar    1  LIG1       -0.0375
      4 C          -3.2580    0.3743   -0.0001 C.ar    1  LIG1        0.0509
      5 C          -4.6612    0.2715   -0.0003 C.ar    1  LIG1        0.0933
      6 N          -5.3207   -0.9034   -0.0001 N.ar    1  LIG1       -0.2531
      7 H          -1.4054   -0.7607   -0.0009 H       1  LIG1        0.0637
      8 H          -2.5135   -3.1487    0.0004 H       1  LIG1        0.0633
      9 H          -5.2431   -3.1437    0.0002 H       1  LIG1        0.0830
     10 N          -2.6846    1.5410   -0.0003 N.pl3   1  LIG1       -0.3563
     11 H          -1.8048    1.4799   -0.4718 H       1  LIG1        0.1424
     12 H          -3.2703    2.2002   -0.4718 H       1  LIG1        0.1424
     13 C          -6.4540    1.4715   -0.9299 C.ar    1  LIG1        0.0482
     14 C          -5.4065    1.3366   -0.0004 C.ar    1  LIG1        0.0244
     15 C          -5.1904    2.3684    0.9149 C.ar    1  LIG1       -0.0313
     16 C          -6.0201    3.4901    0.8713 C.ar    1  LIG1        0.0784
     17 C          -7.0412    3.5329   -0.0957 C.ar    1  LIG1        0.0904
     18 N          -7.2639    2.5466   -0.9861 N.ar    1  LIG1       -0.2499
     19 H          -4.3810    2.2989    1.6554 H       1  LIG1        0.0638
     20 C          -6.6945    0.5376   -1.8021 C.3     1  LIG1       -0.0217
     21 H          -5.9988   -0.2641   -1.6672 H       1  LIG1        0.0293
     22 H          -6.5916    0.9367   -2.7896 H       1  LIG1        0.0293
     23 H          -7.6909    0.1717   -1.6672 H       1  LIG1        0.0293
     24 N          -5.7181    5.3482    2.4341 N.1     1  LIG1       -0.1908
     25 C          -5.8597    4.4774    1.7017 C.1     1  LIG1        0.1013
     26 C          -9.2116    4.3577   -0.4317 C.ar    1  LIG1        0.0346
     27 C         -10.0341    5.4982   -0.5107 C.ar    1  LIG1       -0.0300
     28 C          -7.8394    4.5558   -0.1758 C.ar    1  LIG1        0.0235
     29 C          -9.5155    6.7800   -0.3421 C.ar    1  LIG1        0.0187
     30 H         -11.0960    5.3680   -0.7076 H       1  LIG1        0.0643
     31 C          -7.3211    5.8354   -0.0074 C.ar    1  LIG1       -0.0327
     32 C          -8.1545    6.9557   -0.0891 C.ar    1  LIG1        0.0616
     33 H          -6.2595    5.9620    0.1889 H       1  LIG1        0.0638
     34 N          -9.7534    3.1877   -0.5976 N.pl3   1  LIG1       -0.3574
     35 H         -10.6080    3.2854   -1.1077 H       1  LIG1        0.1423
     36 H          -9.1261    2.5992   -1.1077 H       1  LIG1        0.1423
     37 N          -7.2322    9.2022    0.2086 N.1     1  LIG1       -0.1908
     38 C          -7.6644    8.1494    0.0691 C.1     1  LIG1        0.0998
     39 C         -10.3038    7.8108   -0.4213 C.ar    1  LIG1        0.0666
     40 C         -10.0472    9.0899   -0.8033 C.ar    1  LIG1        0.0943
     41 C         -11.2751    9.8202   -0.7045 C.ar    1  LIG1        0.0870
     42 C         -12.2283    8.9547   -0.2681 C.ar    1  LIG1        0.0209
     43 N         -11.6379    7.7235   -0.0931 N.ar    1  LIG1       -0.3584
     44 H         -12.1014    6.9018    0.2200 H       1  LIG1        0.1654
     45 H         -13.4915    9.1434   -0.0254 H       1  LIG1        0.0820
     46 N          -7.8830    9.9753   -1.5230 N.1     1  LIG1       -0.1908
     47 C          -8.8973    9.5604   -1.1857 C.1     1  LIG1        0.1026
     48 N         -11.6043   12.1882   -1.2242 N.1     1  LIG1       -0.1908
     49 C         -11.4500   11.0784   -0.9806 C.1     1  LIG1        0.1020
@<TRIPOS>BOND
     1    22    20    1
     2    20    23    1
     3    20    21    1
     4    20    13    1
     5    46    47    3
     6    48    49    3
     7    47    40    1
     8    36    34    1
     9    35    34    1
    10    18    13   ar
    11    18    17   ar
    12    49    41    1
    13    13    14   ar
    14    40    41   ar
    15    40    39   ar
    16    30    27    1
    17    41    42   ar
    18    34    26    1
    19    27    26   ar
    20    27    29   ar
    21    12    10    1
    22    11    10    1
    23    26    28   ar
    24    39    29    1
    25    39    43   ar
    26    29    32   ar
    27    42    43   ar
    28    42    45    1
    29    28    17    1
    30    28    31   ar
    31    17    16   ar
    32    43    44    1
    33    32    31   ar
    34    32    38    1
    35    31    33    1
    36     7     3    1
    37    14     5    1
    38    14    15   ar
    39    10     4    1
    40     5     6   ar
    41     5     4   ar
    42     6     1   ar
    43     4     3   ar
    44     1     2   ar
    45     1     9    1
    46     3     2   ar
    47     2     8    1
    48    38    37    3
    49    16    15   ar
    50    16    25    1
    51    15    19    1
    52    25    24    3
