@<TRIPOS>MOLECULE
mol_data/noopt/geoms/mol2/6ah6ah-4ah6ah.out
 47 50 0 0 0
SMALL
GASTEIGER

@<TRIPOS>ATOM
      1 C          -4.5775   -2.0270    0.0001 C.ar    1  LIG1        0.0284
      2 C          -3.1706   -2.0270    0.0001 C.ar    1  LIG1       -0.0418
      3 C          -2.5039   -0.8004    0.0001 C.ar    1  LIG1       -0.0375
      4 C          -3.2580    0.3743   -0.0001 C.ar    1  LIG1        0.0509
      5 C          -4.6612    0.2715   -0.0003 C.ar    1  LIG1        0.0930
      6 N          -5.3207   -0.9034   -0.0001 N.ar    1  LIG1       -0.2531
      7 H          -1.4054   -0.7607   -0.0009 H       1  LIG1        0.0637
      8 H          -2.5135   -3.1487    0.0004 H       1  LIG1        0.0633
      9 H          -5.2431   -3.1437    0.0002 H       1  LIG1        0.0830
     10 N          -2.6846    1.5410   -0.0003 N.pl3   1  LIG1       -0.3563
     11 H          -1.8048    1.4799   -0.4718 H       1  LIG1        0.1424
     12 H          -3.2703    2.2002   -0.4718 H       1  LIG1        0.1424
     13 C          -4.8196    2.6153   -0.0003 C.ar    1  LIG1        0.0376
     14 C          -5.4065    1.3366   -0.0004 C.ar    1  LIG1        0.0220
     15 C          -6.7994    1.2424   -0.0003 C.ar    1  LIG1       -0.0283
     16 C          -7.5524    2.4178   -0.0003 C.ar    1  LIG1        0.0515
     17 C          -6.8736    3.6502   -0.0004 C.ar    1  LIG1        0.0916
     18 N          -5.5307    3.7594   -0.0003 N.ar    1  LIG1       -0.2525
     19 H          -7.2937    0.2606   -0.0014 H       1  LIG1        0.0644
     20 H          -3.5271    2.7543   -0.0003 H       1  LIG1        0.0836
     21 N          -8.8520    2.3834   -0.0004 N.pl3   1  LIG1       -0.3563
     22 H          -9.2068    3.1908   -0.4718 H       1  LIG1        0.1424
     23 H          -9.1636    1.5584   -0.4719 H       1  LIG1        0.1424
     24 C          -6.8310    5.9958    0.0005 C.ar    1  LIG1       -0.0518
     25 C          -7.5886    7.1830    0.0022 C.ar    1  LIG1       -0.0516
     26 C          -7.5307    4.7718   -0.0003 C.ar    1  LIG1        0.0039
     27 C          -8.9814    7.1551    0.0023 C.ar    1  LIG1        0.0043
     28 H          -7.0688    8.1385    0.0030 H       1  LIG1        0.0624
     29 C          -8.9211    4.7434   -0.0001 C.ar    1  LIG1       -0.0312
     30 C          -9.6560    5.9336    0.0011 C.ar    1  LIG1        0.0330
     31 H          -9.4376    3.7869   -0.0006 H       1  LIG1        0.0643
     32 H          -5.5341    6.0859    0.0002 H       1  LIG1        0.0624
     33 N         -10.9556    5.9008    0.0014 N.pl3   1  LIG1       -0.3575
     34 H         -11.3095    6.7086   -0.4699 H       1  LIG1        0.1423
     35 H         -11.2683    5.0762   -0.4699 H       1  LIG1        0.1423
     36 C         -11.0562    8.2567    0.0047 C.ar    1  LIG1        0.0354
     37 C          -9.6493    8.2703    0.0037 C.ar    1  LIG1        0.0037
     38 C          -8.9946    9.5034    0.0047 C.ar    1  LIG1       -0.0303
     39 C          -9.7600   10.6707    0.0063 C.ar    1  LIG1        0.0435
     40 C         -11.1621   10.5543    0.0069 C.ar    1  LIG1        0.0482
     41 N         -11.8102    9.3730    0.0062 N.ar    1  LIG1       -0.2608
     42 H          -7.8965    9.5537    0.0030 H       1  LIG1        0.0643
     43 H         -11.9177   11.6121    0.0085 H       1  LIG1        0.0848
     44 H         -11.7109    7.1336    0.0040 H       1  LIG1        0.0836
     45 N          -9.1979   11.8429    0.0071 N.pl3   1  LIG1       -0.3568
     46 H          -8.3175   11.7907   -0.4642 H       1  LIG1        0.1424
     47 H          -9.7899   12.4967   -0.4642 H       1  LIG1        0.1424
@<TRIPOS>BOND
     1    23    21    1
     2    22    21    1
     3    12    10    1
     4    11    10    1
     5    35    33    1
     6    34    33    1
     7    47    45    1
     8    46    45    1
     9    19    15    1
    10     7     3    1
    11    31    29    1
    12    14    15   ar
    13    14     5    1
    14    14    13   ar
    15    21    16    1
    16    17    16   ar
    17    17    26    1
    18    17    18   ar
    19    15    16   ar
    20    10     4    1
    21     5     6   ar
    22     5     4   ar
    23    26    29   ar
    24    26    24   ar
    25    13    18   ar
    26    13    20    1
    27     6     1   ar
    28     4     3   ar
    29    29    30   ar
    30     1     2   ar
    31     1     9    1
    32     2     3   ar
    33     2     8    1
    34    32    24    1
    35    24    25   ar
    36    30    33    1
    37    30    27   ar
    38    25    27   ar
    39    25    28    1
    40    27    37    1
    41    42    38    1
    42    37    36   ar
    43    37    38   ar
    44    44    36    1
    45    36    41   ar
    46    38    39   ar
    47    41    40   ar
    48    39    40   ar
    49    39    45    1
    50    40    43    1
