@<TRIPOS>MOLECULE
mol_data/noopt/geoms/mol2/6ah6ah6ah.out
 35 37 0 0 0
SMALL
GASTEIGER

@<TRIPOS>ATOM
      1 C          -4.5775   -2.0270    0.0001 C.ar    1  LIG1        0.0284
      2 C          -3.1706   -2.0270    0.0001 C.ar    1  LIG1       -0.0418
      3 C          -2.5039   -0.8004    0.0001 C.ar    1  LIG1       -0.0375
      4 C          -3.2580    0.3743   -0.0001 C.ar    1  LIG1        0.0509
      5 C          -4.6612    0.2715   -0.0003 C.ar    1  LIG1        0.0930
      6 N          -5.3207   -0.9034   -0.0001 N.ar    1  LIG1       -0.2531
      7 H          -1.4054   -0.7607   -0.0009 H       1  LIG1        0.0637
      8 H          -2.5135   -3.1487    0.0004 H       1  LIG1        0.0633
      9 H          -5.2431   -3.1437    0.0002 H       1  LIG1        0.0830
     10 N          -2.6846    1.5410   -0.0003 N.pl3   1  LIG1       -0.3563
     11 H          -1.8048    1.4799   -0.4718 H       1  LIG1        0.1424
     12 H          -3.2703    2.2002   -0.4718 H       1  LIG1        0.1424
     13 C          -6.8088    1.2233   -0.0003 C.ar    1  LIG1        0.0376
     14 C          -5.4065    1.3366   -0.0004 C.ar    1  LIG1        0.0220
     15 C          -4.8408    2.6129   -0.0003 C.ar    1  LIG1       -0.0283
     16 C          -5.6871    3.7231   -0.0003 C.ar    1  LIG1        0.0516
     17 C          -7.0774    3.5076   -0.0004 C.ar    1  LIG1        0.0931
     18 N          -7.6401    2.2834   -0.0003 N.ar    1  LIG1       -0.2524
     19 H          -3.7491    2.7410   -0.0014 H       1  LIG1        0.0644
     20 H          -7.3823    0.0566   -0.0003 H       1  LIG1        0.0836
     21 N          -5.2095    4.9322   -0.0004 N.pl3   1  LIG1       -0.3563
     22 H          -4.3276    4.9422   -0.4718 H       1  LIG1        0.1424
     23 H          -5.8464    5.5421   -0.4718 H       1  LIG1        0.1424
     24 C          -9.2948    4.2833   -0.0001 C.ar    1  LIG1        0.0369
     25 C          -7.9061    4.5092   -0.0003 C.ar    1  LIG1        0.0220
     26 C          -7.4450    5.8270   -0.0001 C.ar    1  LIG1       -0.0289
     27 C          -8.3780    6.8653    0.0002 C.ar    1  LIG1        0.0435
     28 C          -9.7465    6.5385    0.0002 C.ar    1  LIG1        0.0482
     29 N         -10.2087    5.2730    0.0002 N.ar    1  LIG1       -0.2608
     30 H          -6.3672    6.0425   -0.0012 H       1  LIG1        0.0643
     31 H         -10.6531    7.4701    0.0005 H       1  LIG1        0.0848
     32 H          -9.7724    3.0742   -0.0002 H       1  LIG1        0.0836
     33 N          -7.9993    8.1090    0.0002 N.pl3   1  LIG1       -0.3568
     34 H          -7.1212    8.1900   -0.4712 H       1  LIG1        0.1424
     35 H          -8.6833    8.6657   -0.4712 H       1  LIG1        0.1424
@<TRIPOS>BOND
     1    23    21    1
     2    22    21    1
     3    12    10    1
     4    11    10    1
     5    35    33    1
     6    34    33    1
     7    19    15    1
     8    30    26    1
     9     7     3    1
    10    14     5    1
    11    14    13   ar
    12    14    15   ar
    13    17    18   ar
    14    17    25    1
    15    17    16   ar
    16    21    16    1
    17    10     4    1
    18     5     6   ar
    19     5     4   ar
    20    13    20    1
    21    13    18   ar
    22    15    16   ar
    23    25    24   ar
    24    25    26   ar
    25    32    24    1
    26     6     1   ar
    27     4     3   ar
    28    24    29   ar
    29    26    27   ar
    30     1     2   ar
    31     1     9    1
    32     2     3   ar
    33     2     8    1
    34    29    28   ar
    35    28    27   ar
    36    28    31    1
    37    27    33    1
