@<TRIPOS>MOLECULE
mol_data/noopt/geoms/mol2/6ah6ah-6ah6ah-.out
 46 49 0 0 0
SMALL
GASTEIGER

@<TRIPOS>ATOM
      1 C          -4.5775   -2.0270    0.0001 C.ar    1  LIG1        0.0284
      2 C          -3.1706   -2.0270    0.0001 C.ar    1  LIG1       -0.0418
      3 C          -2.5039   -0.8004    0.0001 C.ar    1  LIG1       -0.0375
      4 C          -3.2580    0.3743   -0.0001 C.ar    1  LIG1        0.0509
      5 C          -4.6612    0.2715   -0.0003 C.ar    1  LIG1        0.0930
      6 N          -5.3207   -0.9034   -0.0001 N.ar    1  LIG1       -0.2531
      7 H          -1.4054   -0.7607   -0.0009 H       1  LIG1        0.0637
      8 H          -2.5135   -3.1487    0.0004 H       1  LIG1        0.0633
      9 H          -5.2431   -3.1437    0.0002 H       1  LIG1        0.0830
     10 N          -2.6846    1.5410   -0.0003 N.pl3   1  LIG1       -0.3563
     11 H          -1.8048    1.4799   -0.4718 H       1  LIG1        0.1424
     12 H          -3.2703    2.2002   -0.4718 H       1  LIG1        0.1424
     13 C          -4.8196    2.6153   -0.0003 C.ar    1  LIG1        0.0376
     14 C          -5.4065    1.3366   -0.0004 C.ar    1  LIG1        0.0220
     15 C          -6.7994    1.2424   -0.0003 C.ar    1  LIG1       -0.0283
     16 C          -7.5524    2.4178   -0.0003 C.ar    1  LIG1        0.0516
     17 C          -6.8736    3.6502   -0.0004 C.ar    1  LIG1        0.0931
     18 N          -5.5307    3.7594   -0.0003 N.ar    1  LIG1       -0.2524
     19 H          -7.2937    0.2606   -0.0014 H       1  LIG1        0.0644
     20 H          -3.5271    2.7543   -0.0003 H       1  LIG1        0.0836
     21 N          -8.8520    2.3834   -0.0004 N.pl3   1  LIG1       -0.3563
     22 H          -9.2068    3.1908   -0.4718 H       1  LIG1        0.1424
     23 H          -9.1636    1.5584   -0.4719 H       1  LIG1        0.1424
     24 C          -8.9376    4.7719   -0.0001 C.ar    1  LIG1        0.0376
     25 C          -7.5307    4.7719   -0.0003 C.ar    1  LIG1        0.0220
     26 C          -6.8640    5.9985   -0.0001 C.ar    1  LIG1       -0.0283
     27 C          -7.6181    7.1732    0.0002 C.ar    1  LIG1        0.0516
     28 C          -9.0213    7.0704    0.0002 C.ar    1  LIG1        0.0931
     29 N          -9.6808    5.8955    0.0002 N.ar    1  LIG1       -0.2524
     30 H          -5.7655    6.0382   -0.0012 H       1  LIG1        0.0644
     31 H          -9.6032    3.6552   -0.0002 H       1  LIG1        0.0836
     32 N          -7.0447    8.3399    0.0002 N.pl3   1  LIG1       -0.3563
     33 H          -6.1649    8.2789   -0.4712 H       1  LIG1        0.1424
     34 H          -7.6304    8.9992   -0.4712 H       1  LIG1        0.1424
     35 C          -9.1798    9.4141    0.0008 C.ar    1  LIG1        0.0369
     36 C          -9.7667    8.1355    0.0005 C.ar    1  LIG1        0.0220
     37 C         -11.1596    8.0413    0.0008 C.ar    1  LIG1       -0.0289
     38 C         -11.9126    9.2167    0.0012 C.ar    1  LIG1        0.0435
     39 C         -11.2338   10.4491    0.0013 C.ar    1  LIG1        0.0482
     40 N          -9.8909   10.5583    0.0012 N.ar    1  LIG1       -0.2608
     41 H         -11.6539    7.0595   -0.0005 H       1  LIG1        0.0643
     42 H         -11.8909   11.5707    0.0018 H       1  LIG1        0.0848
     43 H          -7.8872    9.5532    0.0006 H       1  LIG1        0.0836
     44 N         -13.2121    9.1823    0.0013 N.pl3   1  LIG1       -0.3568
     45 H         -13.5670    9.9896   -0.4700 H       1  LIG1        0.1424
     46 H         -13.5238    8.3573   -0.4701 H       1  LIG1        0.1424
@<TRIPOS>BOND
     1    23    21    1
     2    22    21    1
     3    12    10    1
     4    11    10    1
     5    34    32    1
     6    33    32    1
     7    46    44    1
     8    45    44    1
     9    19    15    1
    10    30    26    1
    11     7     3    1
    12    41    37    1
    13    14    15   ar
    14    14     5    1
    15    14    13   ar
    16    21    16    1
    17    17    16   ar
    18    17    25    1
    19    17    18   ar
    20    15    16   ar
    21    10     4    1
    22     5     6   ar
    23     5     4   ar
    24    25    24   ar
    25    25    26   ar
    26    13    18   ar
    27    13    20    1
    28    31    24    1
    29     6     1   ar
    30     4     3   ar
    31    24    29   ar
    32    26    27   ar
    33     2     3   ar
    34     2     1   ar
    35     2     8    1
    36     1     9    1
    37    29    28   ar
    38    28    27   ar
    39    28    36    1
    40    27    32    1
    41    36    37   ar
    42    36    35   ar
    43    43    35    1
    44    37    38   ar
    45    35    40   ar
    46    38    39   ar
    47    38    44    1
    48    40    39   ar
    49    39    42    1
