@<TRIPOS>MOLECULE
mol_data/noopt/geoms/mol2/6ah6ah-6ah.out
 35 37 0 0 0
SMALL
GASTEIGER

@<TRIPOS>ATOM
      1 C          -4.5775   -2.0270    0.0001 C.ar    1  LIG1        0.0284
      2 C          -3.1706   -2.0270    0.0001 C.ar    1  LIG1       -0.0418
      3 C          -2.5039   -0.8004    0.0001 C.ar    1  LIG1       -0.0375
      4 C          -3.2580    0.3743   -0.0001 C.ar    1  LIG1        0.0509
      5 C          -4.6612    0.2715   -0.0003 C.ar    1  LIG1        0.0930
      6 N          -5.3207   -0.9034   -0.0001 N.ar    1  LIG1       -0.2531
      7 H          -1.4054   -0.7607   -0.0009 H       1  LIG1        0.0637
      8 H          -2.5135   -3.1487    0.0004 H       1  LIG1        0.0633
      9 H          -5.2431   -3.1437    0.0002 H       1  LIG1        0.0830
     10 N          -2.6846    1.5410   -0.0003 N.pl3   1  LIG1       -0.3563
     11 H          -1.8048    1.4799   -0.4718 H       1  LIG1        0.1424
     12 H          -3.2703    2.2002   -0.4718 H       1  LIG1        0.1424
     13 C          -4.8196    2.6153   -0.0003 C.ar    1  LIG1        0.0376
     14 C          -5.4065    1.3366   -0.0004 C.ar    1  LIG1        0.0220
     15 C          -6.7994    1.2424   -0.0003 C.ar    1  LIG1       -0.0283
     16 C          -7.5524    2.4178   -0.0003 C.ar    1  LIG1        0.0516
     17 C          -6.8736    3.6502   -0.0004 C.ar    1  LIG1        0.0931
     18 N          -5.5307    3.7594   -0.0003 N.ar    1  LIG1       -0.2524
     19 H          -7.2937    0.2606   -0.0014 H       1  LIG1        0.0644
     20 H          -3.5271    2.7543   -0.0003 H       1  LIG1        0.0836
     21 N          -8.8520    2.3834   -0.0004 N.pl3   1  LIG1       -0.3563
     22 H          -9.2068    3.1908   -0.4718 H       1  LIG1        0.1424
     23 H          -9.1636    1.5584   -0.4719 H       1  LIG1        0.1424
     24 C          -8.9376    4.7719   -0.0001 C.ar    1  LIG1        0.0369
     25 C          -7.5307    4.7719   -0.0003 C.ar    1  LIG1        0.0220
     26 C          -6.8640    5.9985   -0.0001 C.ar    1  LIG1       -0.0289
     27 C          -7.6181    7.1732    0.0002 C.ar    1  LIG1        0.0435
     28 C          -9.0213    7.0704    0.0002 C.ar    1  LIG1        0.0482
     29 N          -9.6808    5.8955    0.0002 N.ar    1  LIG1       -0.2608
     30 H          -5.7655    6.0382   -0.0012 H       1  LIG1        0.0643
     31 H          -9.7666    8.1355    0.0005 H       1  LIG1        0.0848
     32 H          -9.6032    3.6552   -0.0002 H       1  LIG1        0.0836
     33 N          -7.0447    8.3399    0.0002 N.pl3   1  LIG1       -0.3568
     34 H          -6.1649    8.2789   -0.4712 H       1  LIG1        0.1424
     35 H          -7.6304    8.9992   -0.4712 H       1  LIG1        0.1424
@<TRIPOS>BOND
     1    23    21    1
     2    22    21    1
     3    12    10    1
     4    11    10    1
     5    35    33    1
     6    34    33    1
     7    19    15    1
     8    30    26    1
     9     7     3    1
    10    14    15   ar
    11    14     5    1
    12    14    13   ar
    13    21    16    1
    14    17    16   ar
    15    17    25    1
    16    17    18   ar
    17    15    16   ar
    18    10     4    1
    19     5     6   ar
    20     5     4   ar
    21    25    24   ar
    22    25    26   ar
    23    13    18   ar
    24    13    20    1
    25    32    24    1
    26     6     1   ar
    27     4     3   ar
    28    24    29   ar
    29    26    27   ar
    30     1     2   ar
    31     1     9    1
    32     3     2   ar
    33     2     8    1
    34    29    28   ar
    35    28    27   ar
    36    28    31    1
    37    27    33    1
