@<TRIPOS>MOLECULE
mol_data/noopt/geoms/mol2/6ah6ah6ah-6ah.out
 46 49 0 0 0
SMALL
GASTEIGER

@<TRIPOS>ATOM
      1 C          -4.5775   -2.0270    0.0001 C.ar    1  LIG1        0.0284
      2 C          -3.1706   -2.0270    0.0001 C.ar    1  LIG1       -0.0418
      3 C          -2.5039   -0.8004    0.0001 C.ar    1  LIG1       -0.0375
      4 C          -3.2580    0.3743   -0.0001 C.ar    1  LIG1        0.0509
      5 C          -4.6612    0.2715   -0.0003 C.ar    1  LIG1        0.0930
      6 N          -5.3207   -0.9034   -0.0001 N.ar    1  LIG1       -0.2531
      7 H          -1.4054   -0.7607   -0.0009 H       1  LIG1        0.0637
      8 H          -2.5135   -3.1487    0.0004 H       1  LIG1        0.0633
      9 H          -5.2431   -3.1437    0.0002 H       1  LIG1        0.0830
     10 N          -2.6846    1.5410   -0.0003 N.pl3   1  LIG1       -0.3563
     11 H          -1.8048    1.4799   -0.4718 H       1  LIG1        0.1424
     12 H          -3.2703    2.2002   -0.4718 H       1  LIG1        0.1424
     13 C          -6.8088    1.2233   -0.0003 C.ar    1  LIG1        0.0376
     14 C          -5.4065    1.3366   -0.0004 C.ar    1  LIG1        0.0220
     15 C          -4.8408    2.6129   -0.0003 C.ar    1  LIG1       -0.0283
     16 C          -5.6871    3.7231   -0.0003 C.ar    1  LIG1        0.0516
     17 C          -7.0774    3.5076   -0.0004 C.ar    1  LIG1        0.0931
     18 N          -7.6401    2.2834   -0.0003 N.ar    1  LIG1       -0.2524
     19 H          -3.7491    2.7410   -0.0014 H       1  LIG1        0.0644
     20 H          -7.3823    0.0566   -0.0003 H       1  LIG1        0.0836
     21 N          -5.2095    4.9322   -0.0004 N.pl3   1  LIG1       -0.3563
     22 H          -4.3276    4.9422   -0.4718 H       1  LIG1        0.1424
     23 H          -5.8464    5.5421   -0.4718 H       1  LIG1        0.1424
     24 C          -7.4241    5.8310   -0.0000 C.ar    1  LIG1        0.0376
     25 C          -7.9061    4.5092   -0.0003 C.ar    1  LIG1        0.0220
     26 C          -9.2869    4.3031   -0.0001 C.ar    1  LIG1       -0.0283
     27 C         -10.1321    5.4140    0.0002 C.ar    1  LIG1        0.0516
     28 C          -9.5548    6.6971    0.0002 C.ar    1  LIG1        0.0931
     29 N          -8.2251    6.9141    0.0002 N.ar    1  LIG1       -0.2524
     30 H          -9.7005    3.2847   -0.0012 H       1  LIG1        0.0644
     31 H          -6.1470    6.0737   -0.0001 H       1  LIG1        0.0836
     32 N         -11.4247    5.2750    0.0002 N.pl3   1  LIG1       -0.3563
     33 H         -11.8434    6.0512   -0.4712 H       1  LIG1        0.1424
     34 H         -11.6688    4.4276   -0.4713 H       1  LIG1        0.1424
     35 C         -11.7025    7.6489    0.0008 C.ar    1  LIG1        0.0369
     36 C         -10.3001    7.7622    0.0005 C.ar    1  LIG1        0.0220
     37 C          -9.7344    9.0385    0.0008 C.ar    1  LIG1       -0.0289
     38 C         -10.5807   10.1487    0.0012 C.ar    1  LIG1        0.0435
     39 C         -11.9710    9.9332    0.0013 C.ar    1  LIG1        0.0482
     40 N         -12.5338    8.7090    0.0012 N.ar    1  LIG1       -0.2608
     41 H          -8.6427    9.1666   -0.0004 H       1  LIG1        0.0643
     42 H         -12.7997   10.9348    0.0018 H       1  LIG1        0.0848
     43 H         -12.2760    6.4822    0.0006 H       1  LIG1        0.0836
     44 N         -10.1031   11.3578    0.0014 N.pl3   1  LIG1       -0.3568
     45 H          -9.2212   11.3679   -0.4700 H       1  LIG1        0.1424
     46 H         -10.7400   11.9678   -0.4700 H       1  LIG1        0.1424
@<TRIPOS>BOND
     1    23    21    1
     2    22    21    1
     3    12    10    1
     4    11    10    1
     5    34    32    1
     6    33    32    1
     7    46    44    1
     8    45    44    1
     9    19    15    1
    10    30    26    1
    11     7     3    1
    12    41    37    1
    13    14     5    1
    14    14    13   ar
    15    14    15   ar
    16    17    18   ar
    17    17    25    1
    18    17    16   ar
    19    21    16    1
    20    10     4    1
    21     5     6   ar
    22     5     4   ar
    23    13    20    1
    24    13    18   ar
    25    15    16   ar
    26    25    26   ar
    27    25    24   ar
    28    31    24    1
    29     6     1   ar
    30     4     3   ar
    31    26    27   ar
    32    24    29   ar
    33     1     2   ar
    34     1     9    1
    35     2     3   ar
    36     2     8    1
    37    27    32    1
    38    27    28   ar
    39    28    29   ar
    40    28    36    1
    41    36    35   ar
    42    36    37   ar
    43    43    35    1
    44    35    40   ar
    45    37    38   ar
    46    40    39   ar
    47    38    39   ar
    48    38    44    1
    49    39    42    1
