@<TRIPOS>MOLECULE
mol_data/noopt/geoms/mol2/6ai13ha(150)6dd(20)12ed.out
 45 49 0 0 0
SMALL
GASTEIGER

@<TRIPOS>ATOM
      1 C          -4.5775   -2.0270    0.0001 C.ar    1  LIG1        0.0283
      2 C          -3.1706   -2.0270    0.0001 C.ar    1  LIG1       -0.0433
      3 C          -2.5039   -0.8004    0.0001 C.ar    1  LIG1       -0.0553
      4 C          -3.2580    0.3743   -0.0001 C.ar    1  LIG1       -0.0230
      5 C          -4.6612    0.2715   -0.0003 C.ar    1  LIG1        0.0918
      6 N          -5.3207   -0.9034   -0.0001 N.ar    1  LIG1       -0.2532
      7 H          -1.4054   -0.7607   -0.0009 H       1  LIG1        0.0621
      8 H          -2.5135   -3.1487    0.0004 H       1  LIG1        0.0633
      9 H          -5.2431   -3.1437    0.0002 H       1  LIG1        0.0830
     10 C          -2.6845    1.5413   -0.0003 C.3     1  LIG1       -0.0376
     11 H          -3.3112    2.2468    0.5041 H       1  LIG1        0.0278
     12 H          -2.5273    1.8613   -1.0092 H       1  LIG1        0.0278
     13 H          -1.7430    1.4761    0.5040 H       1  LIG1        0.0278
     14 C          -5.4065    1.3366   -0.0004 C.ar    1  LIG1        0.0866
     15 C          -6.6605    1.5356    0.4853 C.ar    1  LIG1        0.0523
     16 C          -7.0103    2.8988    0.2207 C.ar    1  LIG1       -0.0149
     17 C          -5.9540    3.4734   -0.4135 C.ar    1  LIG1        0.0515
     18 N          -4.9701    2.5204   -0.5513 N.ar    1  LIG1       -0.3514
     19 H          -4.0849    2.6643   -0.9798 H       1  LIG1        0.1660
     20 N          -7.4031    0.6487    1.0786 N.pl3   1  LIG1       -0.3563
     21 H          -8.3576    0.7805    0.8113 H       1  LIG1        0.1424
     22 H          -7.1056   -0.2678    0.8113 H       1  LIG1        0.1424
     23 H          -8.1300    3.4829    0.5289 H       1  LIG1        0.0657
     24 C          -6.8532    5.3606   -1.4850 C.ar    1  LIG1        0.1496
     25 C          -5.7922    4.6857   -0.8539 C.ar    1  LIG1        0.0345
     26 C          -4.5708    5.3472   -0.7139 C.ar    1  LIG1       -0.0426
     27 C          -4.4512    6.6485   -1.2046 C.ar    1  LIG1        0.0091
     28 C          -5.5695    7.2392   -1.8209 C.ar    1  LIG1        0.1013
     29 N          -6.7553    6.6158   -1.9643 N.ar    1  LIG1       -0.2357
     30 H          -3.7188    4.8517   -0.2271 H       1  LIG1        0.0629
     31 N          -9.0292    4.2803   -1.7743 N.1     1  LIG1       -0.1893
     32 C          -8.0094    4.7866   -1.6388 C.1     1  LIG1        0.1198
     33 N          -2.3507    7.8873   -1.0055 N.pl3   1  LIG1       -0.2336
     34 C          -3.3351    7.3067   -1.0988 C.3     1  LIG1        0.1392
     35 C          -5.5075    8.4487   -2.2934 C.3     1  LIG1        0.2343
     36 C          -4.4942    9.3195   -2.6371 C.2     1  LIG1        0.0700
     37 C          -5.1310   10.5317   -3.1081 C.2     1  LIG1        0.1011
     38 C          -6.4918   10.3212   -3.0211 C.2     1  LIG1        0.1050
     39 O          -6.7490    9.0440   -2.5216 O.2     1  LIG1       -0.4755
     40 H          -7.5559   11.0181   -3.2894 H       1  LIG1        0.1037
     41 C          -3.2122    9.1175   -2.5627 C.1     1  LIG1       -0.0937
     42 C          -2.0276    8.9309   -2.4939 C.2     1  LIG1        0.0549
     43 H          -0.9723    8.7646   -2.4327 H       1  LIG1        0.0888
     44 N          -3.9725   12.5376   -3.8955 N.1     1  LIG1       -0.1907
     45 C          -4.5154   11.5976   -3.5265 C.1     1  LIG1        0.1032
@<TRIPOS>BOND
     1    44    45    3
     2    45    37    1
     3    40    38    1
     4    37    38    2
     5    37    36    1
     6    38    39    1
     7    36    41    2
     8    36    35    1
     9    41    42    2
    10    39    35    1
    11    42    43    1
    12    42    33    1
    13    35    28    1
    14    29    28   ar
    15    29    24   ar
    16    28    27   ar
    17    31    32    3
    18    32    24    1
    19    24    25   ar
    20    27    34    1
    21    27    26   ar
    22    34    33    1
    23    12    10    1
    24    19    18    1
    25    25    26   ar
    26    25    17    1
    27    26    30    1
    28    18    17   ar
    29    18    14   ar
    30    17    16   ar
    31     7     3    1
    32    14     5    1
    33    14    15   ar
    34    10     4    1
    35    10    13    1
    36    10    11    1
    37     5     6   ar
    38     5     4   ar
    39     6     1   ar
    40     4     3   ar
    41     1     2   ar
    42     1     9    1
    43     3     2   ar
    44     2     8    1
    45    16    15   ar
    46    16    23    1
    47    15    20    1
    48    22    20    1
    49    21    20    1
