@<TRIPOS>MOLECULE
mol_data/noopt/geoms/mol2/6ai12ii(200)13fl(40)4al(50).out
 54 57 0 0 0
SMALL
GASTEIGER

@<TRIPOS>ATOM
      1 C          -4.5775   -2.0270    0.0001 C.ar    1  LIG1        0.0284
      2 C          -3.1706   -2.0270    0.0001 C.ar    1  LIG1       -0.0433
      3 C          -2.5039   -0.8004    0.0001 C.ar    1  LIG1       -0.0553
      4 C          -3.2580    0.3743   -0.0001 C.ar    1  LIG1       -0.0214
      5 C          -4.6612    0.2715   -0.0003 C.ar    1  LIG1        0.1091
      6 N          -5.3207   -0.9034   -0.0001 N.ar    1  LIG1       -0.2516
      7 H          -1.4054   -0.7607   -0.0009 H       1  LIG1        0.0621
      8 H          -2.5135   -3.1487    0.0004 H       1  LIG1        0.0633
      9 H          -5.2431   -3.1437    0.0002 H       1  LIG1        0.0830
     10 C          -2.6845    1.5413   -0.0003 C.3     1  LIG1       -0.0376
     11 H          -3.3112    2.2468    0.5041 H       1  LIG1        0.0278
     12 H          -2.5273    1.8613   -1.0092 H       1  LIG1        0.0278
     13 H          -1.7430    1.4761    0.5040 H       1  LIG1        0.0278
     14 C          -5.4065    1.3366   -0.0004 C.ar    1  LIG1        0.1573
     15 C          -6.7255    1.6139   -0.2943 C.ar    1  LIG1        0.0004
     16 C          -6.9079    3.0347   -0.0824 C.ar    1  LIG1        0.0004
     17 C          -5.6878    3.5316    0.3273 C.ar    1  LIG1        0.1587
     18 O          -4.7459    2.5038    0.3857 O.2     1  LIG1       -0.4511
     19 C          -7.6452    0.7825   -0.6866 C.3     1  LIG1       -0.0358
     20 H          -7.4245   -0.1957   -0.3133 H       1  LIG1        0.0279
     21 H          -7.6717    0.7585   -1.7561 H       1  LIG1        0.0279
     22 H          -8.5962    1.1006   -0.3133 H       1  LIG1        0.0279
     23 C          -8.0181    3.6899   -0.2527 C.3     1  LIG1       -0.0358
     24 H          -8.8236    3.1508    0.2007 H       1  LIG1        0.0279
     25 H          -8.2089    3.8024   -1.2996 H       1  LIG1        0.0279
     26 H          -7.9354    4.6556    0.2006 H       1  LIG1        0.0279
     27 C          -5.2288    4.7012    0.6609 C.ar    1  LIG1        0.1286
     28 C          -4.2141    5.0446    1.4979 C.ar    1  LIG1        0.1881
     29 C          -4.1312    6.4741    1.5056 C.ar    1  LIG1        0.1874
     30 C          -5.0977    6.9415    0.6716 C.ar    1  LIG1        0.0931
     31 N          -5.7723    5.8594    0.1527 N.ar    1  LIG1       -0.3459
     32 H          -6.5310    5.9069   -0.4878 H       1  LIG1        0.1662
     33 O          -3.4609    4.2234    2.1676 O.3     1  LIG1       -0.5018
     34 H          -2.6084    4.6327    2.3327 H       1  LIG1        0.2924
     35 O          -3.2883    7.1955    2.1833 O.3     1  LIG1       -0.4895
     36 C          -2.1023    6.4362    2.4320 C.3     1  LIG1        0.0791
     37 H          -1.4088    7.0304    2.9897 H       1  LIG1        0.0660
     38 H          -2.3513    5.5590    2.9919 H       1  LIG1        0.0660
     39 H          -1.6594    6.1511    1.5007 H       1  LIG1        0.0660
     40 C          -4.8891    9.2417    1.0832 C.ar    1  LIG1       -0.0523
     41 C          -5.2669   10.5419    0.6956 C.ar    1  LIG1       -0.0577
     42 C          -5.4172    8.1597    0.3495 C.ar    1  LIG1        0.0055
     43 C          -6.1316   10.7576   -0.3751 C.ar    1  LIG1       -0.0199
     44 H          -4.8712   11.3911    1.2483 H       1  LIG1        0.0619
     45 C          -6.2804    8.3745   -0.7195 C.ar    1  LIG1       -0.0107
     46 C          -6.6436    9.6736   -1.0894 C.ar    1  LIG1        0.1207
     47 H          -6.6743    7.5236   -1.2695 H       1  LIG1        0.0661
     48 H          -6.4593   11.9714   -0.7057 H       1  LIG1        0.0654
     49 H          -4.0788    9.1039    2.0904 H       1  LIG1        0.0624
     50 O          -7.4510    9.8683   -2.0895 O.3     1  LIG1       -0.4951
     51 C          -7.4316   11.2502   -2.4567 C.3     1  LIG1        0.0788
     52 H          -8.0962   11.4099   -3.2799 H       1  LIG1        0.0660
     53 H          -7.7455   11.8449   -1.6243 H       1  LIG1        0.0660
     54 H          -6.4386   11.5299   -2.7405 H       1  LIG1        0.0660
@<TRIPOS>BOND
     1    52    51    1
     2    54    51    1
     3    51    50    1
     4    51    53    1
     5    50    46    1
     6    21    19    1
     7    25    23    1
     8    47    45    1
     9    46    45   ar
    10    46    43   ar
    11    12    10    1
    12    45    42   ar
    13    48    43    1
    14    19    22    1
    15    19    20    1
    16    19    15    1
    17    32    31    1
    18    43    41   ar
    19    15    16   ar
    20    15    14   ar
    21    23    16    1
    22    23    26    1
    23    23    24    1
    24    16    17   ar
    25     7     3    1
    26    14     5    1
    27    14    18   ar
    28    10     4    1
    29    10    13    1
    30    10    11    1
    31     5     6   ar
    32     5     4   ar
    33     6     1   ar
    34     4     3   ar
    35     1     2   ar
    36     1     9    1
    37     2     3   ar
    38     2     8    1
    39    31    27   ar
    40    31    30   ar
    41    17    18   ar
    42    17    27    1
    43    42    30    1
    44    42    40   ar
    45    27    28   ar
    46    30    29   ar
    47    41    40   ar
    48    41    44    1
    49    40    49    1
    50    28    29   ar
    51    28    33    1
    52    39    36    1
    53    29    35    1
    54    33    34    1
    55    35    36    1
    56    36    37    1
    57    36    38    1
