@<TRIPOS>MOLECULE
mol_data/noopt/geoms/mol2/6ai13fl(190)4li(280)6ea.out
 55 58 0 0 0
SMALL
GASTEIGER

@<TRIPOS>ATOM
      1 C          -4.5775   -2.0270    0.0001 C.ar    1  LIG1        0.0283
      2 C          -3.1706   -2.0270    0.0001 C.ar    1  LIG1       -0.0433
      3 C          -2.5039   -0.8004    0.0001 C.ar    1  LIG1       -0.0553
      4 C          -3.2580    0.3743   -0.0001 C.ar    1  LIG1       -0.0229
      5 C          -4.6612    0.2715   -0.0003 C.ar    1  LIG1        0.0937
      6 N          -5.3207   -0.9034   -0.0001 N.ar    1  LIG1       -0.2531
      7 H          -1.4054   -0.7607   -0.0009 H       1  LIG1        0.0621
      8 H          -2.5135   -3.1487    0.0004 H       1  LIG1        0.0633
      9 H          -5.2431   -3.1437    0.0002 H       1  LIG1        0.0830
     10 C          -2.6845    1.5413   -0.0003 C.3     1  LIG1       -0.0376
     11 H          -3.3112    2.2468    0.5041 H       1  LIG1        0.0278
     12 H          -2.5273    1.8613   -1.0092 H       1  LIG1        0.0278
     13 H          -1.7430    1.4761    0.5040 H       1  LIG1        0.0278
     14 C          -5.4065    1.3366   -0.0004 C.ar    1  LIG1        0.1114
     15 C          -6.7489    1.4738   -0.1656 C.ar    1  LIG1        0.1865
     16 C          -7.0501    2.8709   -0.0772 C.ar    1  LIG1        0.1875
     17 C          -5.8789    3.5260    0.1399 C.ar    1  LIG1        0.0965
     18 N          -4.8700    2.5905    0.1871 N.ar    1  LIG1       -0.3470
     19 H          -3.9071    2.7888    0.3340 H       1  LIG1        0.1662
     20 O          -7.5991    0.5114   -0.3680 O.3     1  LIG1       -0.5019
     21 H          -7.1305   -0.3250   -0.4179 H       1  LIG1        0.2924
     22 O          -8.2255    3.4161   -0.1839 O.3     1  LIG1       -0.4895
     23 C          -8.0898    4.8391   -0.2231 C.3     1  LIG1        0.0791
     24 H          -9.0574    5.2874   -0.3111 H       1  LIG1        0.0660
     25 H          -7.6204    5.1776    0.6769 H       1  LIG1        0.0660
     26 H          -7.4901    5.1172   -1.0645 H       1  LIG1        0.0660
     27 C          -5.2711    5.5759   -0.8258 C.ar    1  LIG1        0.1299
     28 C          -5.0180    6.9445   -0.6114 C.ar    1  LIG1       -0.0112
     29 C          -5.6370    4.7945    0.2892 C.ar    1  LIG1        0.0439
     30 C          -5.1245    7.5124    0.6562 C.ar    1  LIG1       -0.0088
     31 H          -4.7341    7.5657   -1.4580 H       1  LIG1        0.0660
     32 C          -5.7435    5.3608    1.5549 C.ar    1  LIG1       -0.0455
     33 C          -5.4884    6.7225    1.7476 C.ar    1  LIG1       -0.0418
     34 H          -6.0271    4.7372    2.3989 H       1  LIG1        0.0628
     35 O          -5.1556    5.1037   -2.0315 O.3     1  LIG1       -0.4944
     36 C          -6.4226    4.6101   -2.4742 C.3     1  LIG1        0.0788
     37 H          -6.3272    4.2217   -3.4667 H       1  LIG1        0.0660
     38 H          -6.7519    3.8325   -1.8170 H       1  LIG1        0.0660
     39 H          -7.1369    5.4067   -2.4702 H       1  LIG1        0.0660
     40 C          -5.5894    7.2465    2.9334 C.3     1  LIG1       -0.0391
     41 H          -6.3879    6.7732    3.4656 H       1  LIG1        0.0278
     42 H          -5.7913    8.2936    2.8446 H       1  LIG1        0.0278
     43 H          -4.6721    7.1040    3.4656 H       1  LIG1        0.0278
     44 C          -5.9447    9.6993    0.9069 C.ar    1  LIG1        0.1208
     45 C          -4.8838    8.7796    0.8182 C.ar    1  LIG1        0.0163
     46 C          -3.5760    9.2596    0.9082 C.ar    1  LIG1       -0.0499
     47 C          -3.3736   10.6298    1.0821 C.ar    1  LIG1       -0.0429
     48 C          -4.4992   11.4704    1.1593 C.ar    1  LIG1        0.0290
     49 N          -5.7677   11.0242    1.0746 N.ar    1  LIG1       -0.2461
     50 H          -2.7215    8.5713    0.8422 H       1  LIG1        0.0625
     51 H          -4.3621   12.7530    1.3209 H       1  LIG1        0.0830
     52 C          -7.1796    9.3006    0.8288 C.1     1  LIG1       -0.0492
     53 C          -8.3206    8.9321    0.7565 C.1     1  LIG1       -0.1124
     54 H          -9.3370    8.6039    0.6922 H       1  LIG1        0.1232
     55 H          -2.1754   11.1262    1.1713 H       1  LIG1        0.0633
@<TRIPOS>BOND
     1    37    36    1
     2    36    39    1
     3    36    35    1
     4    36    38    1
     5    35    27    1
     6    31    28    1
     7    26    23    1
     8    12    10    1
     9    27    28   ar
    10    27    29   ar
    11    28    30   ar
    12    21    20    1
    13    20    15    1
    14    24    23    1
    15    23    22    1
    16    23    25    1
    17    22    16    1
    18    15    16   ar
    19    15    14   ar
    20    16    17   ar
    21     7     3    1
    22    14     5    1
    23    14    18   ar
    24    10     4    1
    25    10    13    1
    26    10    11    1
    27     5     6   ar
    28     5     4   ar
    29     6     1   ar
    30     4     3   ar
    31     1     2   ar
    32     1     9    1
    33     3     2   ar
    34     2     8    1
    35    17    18   ar
    36    17    29    1
    37    18    19    1
    38    29    32   ar
    39    30    45    1
    40    30    33   ar
    41    54    53    1
    42    53    52    3
    43    45    44   ar
    44    45    46   ar
    45    52    44    1
    46    50    46    1
    47    44    49   ar
    48    46    47   ar
    49    49    48   ar
    50    47    48   ar
    51    47    55    1
    52    48    51    1
    53    32    33   ar
    54    32    34    1
    55    33    40    1
    56    42    40    1
    57    40    43    1
    58    40    41    1
