@<TRIPOS>MOLECULE
mol_data/noopt/geoms/mol2/6ai4ad6hd-6fh.out
 49 52 0 0 0
SMALL
GASTEIGER

@<TRIPOS>ATOM
      1 C          -4.5775   -2.0270    0.0001 C.ar    1  LIG1        0.0283
      2 C          -3.1706   -2.0270    0.0001 C.ar    1  LIG1       -0.0433
      3 C          -2.5039   -0.8004    0.0001 C.ar    1  LIG1       -0.0554
      4 C          -3.2580    0.3743   -0.0001 C.ar    1  LIG1       -0.0245
      5 C          -4.6612    0.2715   -0.0003 C.ar    1  LIG1        0.0739
      6 N          -5.3207   -0.9034   -0.0001 N.ar    1  LIG1       -0.2547
      7 H          -1.4054   -0.7607   -0.0009 H       1  LIG1        0.0621
      8 H          -2.5135   -3.1487    0.0004 H       1  LIG1        0.0633
      9 H          -5.2431   -3.1437    0.0002 H       1  LIG1        0.0830
     10 C          -2.6845    1.5413   -0.0003 C.3     1  LIG1       -0.0377
     11 H          -3.3112    2.2468    0.5041 H       1  LIG1        0.0278
     12 H          -2.5273    1.8613   -1.0092 H       1  LIG1        0.0278
     13 H          -1.7430    1.4761    0.5040 H       1  LIG1        0.0278
     14 C          -4.8076    2.6130    0.0003 C.ar    1  LIG1       -0.0519
     15 C          -5.6584    3.7353    0.0017 C.ar    1  LIG1       -0.0527
     16 C          -5.4065    1.3366   -0.0004 C.ar    1  LIG1        0.0012
     17 C          -7.0444    3.5952    0.0018 C.ar    1  LIG1       -0.0058
     18 H          -5.2172    4.7295    0.0025 H       1  LIG1        0.0624
     19 C          -6.7901    1.1962   -0.0003 C.ar    1  LIG1       -0.0433
     20 C          -7.6184    2.3233    0.0007 C.ar    1  LIG1        0.0032
     21 H          -7.2278    0.2012   -0.0008 H       1  LIG1        0.0631
     22 H          -3.5222    2.8072    0.0000 H       1  LIG1        0.0624
     23 N         -10.0513    2.0648    0.0011 N.2     1  LIG1       -0.1571
     24 C          -8.9112    2.1860    0.0009 C.2     1  LIG1        0.0576
     25 C          -9.2010    4.5263   -0.0174 C.ar    1  LIG1        0.1434
     26 C          -7.8000    4.6531    0.0030 C.ar    1  LIG1        0.0251
     27 C          -7.2468    5.9347    0.0247 C.ar    1  LIG1       -0.0312
     28 C          -8.1038    7.0366    0.0251 C.ar    1  LIG1        0.0785
     29 C          -9.4919    6.8077    0.0036 C.ar    1  LIG1        0.0956
     30 N         -10.0426    5.5782   -0.0173 N.ar    1  LIG1       -0.2287
     31 H          -6.1565    6.0732    0.0399 H       1  LIG1        0.0638
     32 N          -9.7631    3.3542   -0.0378 N.pl3   1  LIG1       -0.2488
     33 H         -10.6402    3.4134   -0.5144 H       1  LIG1        0.1715
     34 H          -9.1678    2.7074   -0.5145 H       1  LIG1        0.0854
     35 N          -7.2274    9.3205    0.0618 N.1     1  LIG1       -0.1908
     36 C          -7.6381    8.2501    0.0446 C.1     1  LIG1        0.1013
     37 C         -11.7166    7.5619    0.0031 C.ar    1  LIG1        0.2219
     38 C         -10.3302    7.8013    0.0031 C.ar    1  LIG1        0.0647
     39 C          -9.8820    9.1234    0.0031 C.ar    1  LIG1       -0.0252
     40 C         -10.8249   10.1527    0.0027 C.ar    1  LIG1        0.0438
     41 C         -12.1902    9.8127    0.0025 C.ar    1  LIG1        0.0520
     42 N         -12.6402    8.5427    0.0027 N.ar    1  LIG1       -0.2191
     43 H          -8.8062    9.3494    0.0021 H       1  LIG1        0.0645
     44 H         -13.1058   10.7354    0.0022 H       1  LIG1        0.0849
     45 O         -12.1826    6.3482    0.0032 O.3     1  LIG1       -0.4919
     46 H         -11.4525    5.7248    0.0033 H       1  LIG1        0.2937
     47 N         -10.4584   11.4000    0.0025 N.pl3   1  LIG1       -0.3568
     48 H          -9.5810   11.4894   -0.4690 H       1  LIG1        0.1424
     49 H         -11.1477   11.9499   -0.4690 H       1  LIG1        0.1424
@<TRIPOS>BOND
     1    12    10    1
     2    34    24    1
     3    33    32    1
     4    49    47    1
     5    48    47    1
     6    32    25    1
     7    25    30   ar
     8    25    26   ar
     9    30    29   ar
    10     7     3    1
    11    21    19    1
    12    16    19   ar
    13    16     5    1
    14    16    14   ar
    15    19    20   ar
    16    10     4    1
    17    10    13    1
    18    10    11    1
    19     5     4   ar
    20     5     6   ar
    21     4     3   ar
    22     6     1   ar
    23    22    14    1
    24     2     3   ar
    25     2     1   ar
    26     2     8    1
    27     1     9    1
    28    14    15   ar
    29    20    24    1
    30    20    17   ar
    31    24    23    2
    32    15    17   ar
    33    15    18    1
    34    17    26    1
    35    43    39    1
    36    44    41    1
    37    47    40    1
    38    41    40   ar
    39    41    42   ar
    40    40    39   ar
    41    42    37   ar
    42    26    27   ar
    43    39    38   ar
    44    37    38   ar
    45    37    45    1
    46    38    29    1
    47    45    46    1
    48    29    28   ar
    49    27    28   ar
    50    27    31    1
    51    28    36    1
    52    36    35    3
