@<TRIPOS>MOLECULE
mol_data/noopt/geoms/mol2/6ai6dh-13di6fi-.out
 51 54 0 0 0
SMALL
GASTEIGER

@<TRIPOS>ATOM
      1 C          -4.5775   -2.0270    0.0001 C.ar    1  LIG1        0.0283
      2 C          -3.1706   -2.0270    0.0001 C.ar    1  LIG1       -0.0433
      3 C          -2.5039   -0.8004    0.0001 C.ar    1  LIG1       -0.0554
      4 C          -3.2580    0.3743   -0.0001 C.ar    1  LIG1       -0.0244
      5 C          -4.6612    0.2715   -0.0003 C.ar    1  LIG1        0.0766
      6 N          -5.3207   -0.9034   -0.0001 N.ar    1  LIG1       -0.2546
      7 H          -1.4054   -0.7607   -0.0009 H       1  LIG1        0.0621
      8 H          -2.5135   -3.1487    0.0004 H       1  LIG1        0.0633
      9 H          -5.2431   -3.1437    0.0002 H       1  LIG1        0.0830
     10 C          -2.6845    1.5413   -0.0003 C.3     1  LIG1       -0.0377
     11 H          -3.3112    2.2468    0.5041 H       1  LIG1        0.0278
     12 H          -2.5273    1.8613   -1.0092 H       1  LIG1        0.0278
     13 H          -1.7430    1.4761    0.5040 H       1  LIG1        0.0278
     14 C          -6.8087    1.2234   -0.0215 C.ar    1  LIG1        0.1500
     15 C          -5.4065    1.3366   -0.0004 C.ar    1  LIG1        0.0382
     16 C          -4.8409    2.6128    0.0206 C.ar    1  LIG1       -0.0270
     17 C          -5.6872    3.7230    0.0196 C.ar    1  LIG1        0.0531
     18 C          -7.0774    3.5076   -0.0025 C.ar    1  LIG1        0.1104
     19 N          -7.6400    2.2835   -0.0227 N.ar    1  LIG1       -0.2323
     20 H          -3.7493    2.7408    0.0363 H       1  LIG1        0.0644
     21 N          -7.8877   -0.9721   -0.0588 N.1     1  LIG1       -0.1893
     22 C          -7.3820    0.0568   -0.0413 C.1     1  LIG1        0.1198
     23 N          -5.2098    4.9320    0.0384 N.pl3   1  LIG1       -0.3563
     24 H          -4.3254    4.9484   -0.4281 H       1  LIG1        0.1424
     25 H          -5.8442    5.5482   -0.4282 H       1  LIG1        0.1424
     26 C          -7.9061    4.5092   -0.0043 C.ar    1  LIG1        0.0851
     27 C          -7.6712    5.8482   -0.0058 C.ar    1  LIG1        0.0820
     28 C          -8.9435    6.5055   -0.0062 C.ar    1  LIG1       -0.0070
     29 C          -9.8998    5.5394   -0.0067 C.ar    1  LIG1        0.0563
     30 N          -9.2691    4.3157   -0.0051 N.ar    1  LIG1       -0.3515
     31 H          -9.7253    3.4326   -0.0051 H       1  LIG1        0.1660
     32 N          -5.4763    6.9290   -0.0049 N.1     1  LIG1       -0.1908
     33 C          -6.5050    6.4225   -0.0053 C.1     1  LIG1        0.1016
     34 C          -9.1499    7.7894   -0.0066 C.3     1  LIG1       -0.0365
     35 H         -10.0691    8.0029    0.4977 H       1  LIG1        0.0279
     36 H          -9.2066    8.1412   -1.0156 H       1  LIG1        0.0279
     37 H          -8.3440    8.2803    0.4977 H       1  LIG1        0.0279
     38 C         -11.9953    4.4780   -0.0287 C.ar    1  LIG1        0.2217
     39 C         -11.1962    5.6357   -0.0074 C.ar    1  LIG1        0.0602
     40 C         -11.8271    6.8810    0.0133 C.ar    1  LIG1       -0.0432
     41 C         -13.2222    6.9276    0.0117 C.ar    1  LIG1       -0.0315
     42 C         -13.9346    5.7145   -0.0107 C.ar    1  LIG1        0.0343
     43 N         -13.3422    4.5045   -0.0306 N.ar    1  LIG1       -0.2206
     44 H         -11.2358    7.8075    0.0293 H       1  LIG1        0.0629
     45 H         -15.2345    5.7061   -0.0130 H       1  LIG1        0.0833
     46 O         -11.4543    3.2960   -0.0483 O.3     1  LIG1       -0.4919
     47 H         -10.4981    3.3814   -0.0531 H       1  LIG1        0.2937
     48 C         -13.8569    8.0623    0.0302 C.3     1  LIG1       -0.0383
     49 H         -14.7900    7.9408    0.5397 H       1  LIG1        0.0278
     50 H         -14.0381    8.3861   -0.9734 H       1  LIG1        0.0278
     51 H         -13.2650    8.7938    0.5396 H       1  LIG1        0.0278
@<TRIPOS>BOND
     1    36    34    1
     2    12    10    1
     3    50    48    1
     4    25    23    1
     5    24    23    1
     6    21    22    3
     7    47    46    1
     8    46    38    1
     9    22    14    1
    10    43    38   ar
    11    43    42   ar
    12    38    39   ar
    13    19    14   ar
    14    19    18   ar
    15    14    15   ar
    16    45    42    1
    17    42    41   ar
    18    39    29    1
    19    39    40   ar
    20    29    28   ar
    21    29    30   ar
    22    34    28    1
    23    34    37    1
    24    34    35    1
    25    28    27   ar
    26    27    33    1
    27    27    26   ar
    28    33    32    3
    29    31    30    1
    30    30    26   ar
    31    26    18    1
    32    18    17   ar
    33     7     3    1
    34    15     5    1
    35    15    16   ar
    36    10     4    1
    37    10    13    1
    38    10    11    1
    39     5     6   ar
    40     5     4   ar
    41     6     1   ar
    42     4     3   ar
    43     1     2   ar
    44     1     9    1
    45     3     2   ar
    46     2     8    1
    47    41    40   ar
    48    41    48    1
    49    40    44    1
    50    17    16   ar
    51    17    23    1
    52    16    20    1
    53    48    51    1
    54    48    49    1
