@<TRIPOS>MOLECULE
mol_data/noopt/geoms/mol2/6ai6ai6ai-6ai.out
 50 53 0 0 0
SMALL
GASTEIGER

@<TRIPOS>ATOM
      1 C          -4.5775   -2.0270    0.0001 C.ar    1  LIG1        0.0283
      2 C          -3.1706   -2.0270    0.0001 C.ar    1  LIG1       -0.0433
      3 C          -2.5039   -0.8004    0.0001 C.ar    1  LIG1       -0.0554
      4 C          -3.2580    0.3743   -0.0001 C.ar    1  LIG1       -0.0244
      5 C          -4.6612    0.2715   -0.0003 C.ar    1  LIG1        0.0753
      6 N          -5.3207   -0.9034   -0.0001 N.ar    1  LIG1       -0.2547
      7 H          -1.4054   -0.7607   -0.0009 H       1  LIG1        0.0621
      8 H          -2.5135   -3.1487    0.0004 H       1  LIG1        0.0633
      9 H          -5.2431   -3.1437    0.0002 H       1  LIG1        0.0830
     10 C          -2.6845    1.5413   -0.0003 C.3     1  LIG1       -0.0377
     11 H          -3.3112    2.2468    0.5041 H       1  LIG1        0.0278
     12 H          -2.5273    1.8613   -1.0092 H       1  LIG1        0.0278
     13 H          -1.7430    1.4761    0.5040 H       1  LIG1        0.0278
     14 C          -6.8088    1.2233   -0.0003 C.ar    1  LIG1        0.0374
     15 C          -5.4065    1.3366   -0.0004 C.ar    1  LIG1        0.0190
     16 C          -4.8408    2.6129   -0.0003 C.ar    1  LIG1       -0.0462
     17 C          -5.6871    3.7231   -0.0003 C.ar    1  LIG1       -0.0238
     18 C          -7.0774    3.5076   -0.0004 C.ar    1  LIG1        0.0753
     19 N          -7.6401    2.2834   -0.0003 N.ar    1  LIG1       -0.2540
     20 H          -3.7491    2.7410   -0.0014 H       1  LIG1        0.0628
     21 H          -7.3823    0.0566   -0.0003 H       1  LIG1        0.0836
     22 C          -5.2094    4.9325   -0.0004 C.3     1  LIG1       -0.0377
     23 H          -5.8909    5.5852    0.5040 H       1  LIG1        0.0278
     24 H          -5.0784    5.2642   -1.0092 H       1  LIG1        0.0278
     25 H          -4.2658    4.9433    0.5040 H       1  LIG1        0.0278
     26 C          -7.4241    5.8310   -0.0000 C.ar    1  LIG1        0.0374
     27 C          -7.9061    4.5092   -0.0003 C.ar    1  LIG1        0.0190
     28 C          -9.2869    4.3031   -0.0001 C.ar    1  LIG1       -0.0462
     29 C         -10.1321    5.4140    0.0002 C.ar    1  LIG1       -0.0238
     30 C          -9.5548    6.6971    0.0002 C.ar    1  LIG1        0.0753
     31 N          -8.2251    6.9141    0.0002 N.ar    1  LIG1       -0.2540
     32 H          -9.7005    3.2847   -0.0012 H       1  LIG1        0.0628
     33 H          -6.1470    6.0737   -0.0001 H       1  LIG1        0.0836
     34 C         -11.4250    5.2750    0.0002 C.3     1  LIG1       -0.0377
     35 H         -11.6862    4.3682    0.5046 H       1  LIG1        0.0278
     36 H         -11.7797    5.2368   -1.0087 H       1  LIG1        0.0278
     37 H         -11.8730    6.1056    0.5045 H       1  LIG1        0.0278
     38 C         -11.7025    7.6489    0.0008 C.ar    1  LIG1        0.0367
     39 C         -10.3001    7.7622    0.0005 C.ar    1  LIG1        0.0189
     40 C          -9.7344    9.0385    0.0008 C.ar    1  LIG1       -0.0468
     41 C         -10.5807   10.1487    0.0012 C.ar    1  LIG1       -0.0317
     42 C         -11.9710    9.9332    0.0013 C.ar    1  LIG1        0.0305
     43 N         -12.5338    8.7090    0.0012 N.ar    1  LIG1       -0.2623
     44 H          -8.6427    9.1666   -0.0004 H       1  LIG1        0.0628
     45 H         -12.7997   10.9348    0.0018 H       1  LIG1        0.0832
     46 H         -12.2760    6.4822    0.0006 H       1  LIG1        0.0836
     47 C         -10.1030   11.3581    0.0014 C.3     1  LIG1       -0.0383
     48 H         -10.7845   12.0107    0.5058 H       1  LIG1        0.0278
     49 H          -9.9720   11.6899   -1.0074 H       1  LIG1        0.0278
     50 H          -9.1594   11.3688    0.5058 H       1  LIG1        0.0278
@<TRIPOS>BOND
     1    24    22    1
     2    12    10    1
     3    36    34    1
     4    49    47    1
     5    20    16    1
     6    32    28    1
     7     7     3    1
     8    44    40    1
     9    15     5    1
    10    15    14   ar
    11    15    16   ar
    12    18    19   ar
    13    18    27    1
    14    18    17   ar
    15    22    17    1
    16    22    25    1
    17    22    23    1
    18    10     4    1
    19    10    13    1
    20    10    11    1
    21     5     6   ar
    22     5     4   ar
    23    14    21    1
    24    14    19   ar
    25    16    17   ar
    26    27    28   ar
    27    27    26   ar
    28    33    26    1
    29     6     1   ar
    30     4     3   ar
    31    28    29   ar
    32    26    31   ar
    33     1     2   ar
    34     1     9    1
    35     2     3   ar
    36     2     8    1
    37    29    34    1
    38    29    30   ar
    39    34    37    1
    40    34    35    1
    41    30    31   ar
    42    30    39    1
    43    39    38   ar
    44    39    40   ar
    45    46    38    1
    46    38    43   ar
    47    40    41   ar
    48    43    42   ar
    49    41    42   ar
    50    41    47    1
    51    42    45    1
    52    47    50    1
    53    47    48    1
