@<TRIPOS>MOLECULE
mol_data/noopt/geoms/mol2/6ai6ai.out
 26 27 0 0 0
SMALL
GASTEIGER

@<TRIPOS>ATOM
      1 C          -4.5775   -2.0270    0.0001 C.ar    1  LIG1        0.0283
      2 C          -3.1706   -2.0270    0.0001 C.ar    1  LIG1       -0.0433
      3 C          -2.5039   -0.8004    0.0001 C.ar    1  LIG1       -0.0554
      4 C          -3.2580    0.3743   -0.0001 C.ar    1  LIG1       -0.0244
      5 C          -4.6612    0.2715   -0.0003 C.ar    1  LIG1        0.0753
      6 N          -5.3207   -0.9034   -0.0001 N.ar    1  LIG1       -0.2547
      7 H          -1.4054   -0.7607   -0.0009 H       1  LIG1        0.0621
      8 H          -2.5135   -3.1487    0.0004 H       1  LIG1        0.0633
      9 H          -5.2431   -3.1437    0.0002 H       1  LIG1        0.0830
     10 C          -2.6845    1.5413   -0.0003 C.3     1  LIG1       -0.0377
     11 H          -3.3112    2.2468    0.5041 H       1  LIG1        0.0278
     12 H          -2.5273    1.8613   -1.0092 H       1  LIG1        0.0278
     13 H          -1.7430    1.4761    0.5040 H       1  LIG1        0.0278
     14 C          -6.8088    1.2233   -0.0003 C.ar    1  LIG1        0.0367
     15 C          -5.4065    1.3366   -0.0004 C.ar    1  LIG1        0.0189
     16 C          -4.8408    2.6129   -0.0003 C.ar    1  LIG1       -0.0468
     17 C          -5.6871    3.7231   -0.0003 C.ar    1  LIG1       -0.0317
     18 C          -7.0774    3.5076   -0.0004 C.ar    1  LIG1        0.0305
     19 N          -7.6401    2.2834   -0.0003 N.ar    1  LIG1       -0.2623
     20 H          -3.7491    2.7410   -0.0014 H       1  LIG1        0.0628
     21 H          -7.9061    4.5092   -0.0003 H       1  LIG1        0.0832
     22 H          -7.3823    0.0566   -0.0003 H       1  LIG1        0.0836
     23 C          -5.2094    4.9325   -0.0004 C.3     1  LIG1       -0.0383
     24 H          -5.8909    5.5852    0.5040 H       1  LIG1        0.0278
     25 H          -5.0784    5.2642   -1.0092 H       1  LIG1        0.0278
     26 H          -4.2658    4.9433    0.5040 H       1  LIG1        0.0278
@<TRIPOS>BOND
     1    25    23    1
     2    12    10    1
     3    20    16    1
     4     7     3    1
     5    15     5    1
     6    15    14   ar
     7    15    16   ar
     8    18    19   ar
     9    18    21    1
    10    18    17   ar
    11    23    17    1
    12    23    26    1
    13    23    24    1
    14    10     4    1
    15    10    13    1
    16    10    11    1
    17     5     6   ar
    18     5     4   ar
    19    14    22    1
    20    14    19   ar
    21    16    17   ar
    22     6     1   ar
    23     4     3   ar
    24     1     2   ar
    25     1     9    1
    26     3     2   ar
    27     2     8    1
