@<TRIPOS>MOLECULE
mol_data/noopt/geoms/mol2/6ai6ai-4ai6ai.out
 51 54 0 0 0
SMALL
GASTEIGER

@<TRIPOS>ATOM
      1 C          -4.5775   -2.0270    0.0001 C.ar    1  LIG1        0.0283
      2 C          -3.1706   -2.0270    0.0001 C.ar    1  LIG1       -0.0433
      3 C          -2.5039   -0.8004    0.0001 C.ar    1  LIG1       -0.0554
      4 C          -3.2580    0.3743   -0.0001 C.ar    1  LIG1       -0.0244
      5 C          -4.6612    0.2715   -0.0003 C.ar    1  LIG1        0.0753
      6 N          -5.3207   -0.9034   -0.0001 N.ar    1  LIG1       -0.2547
      7 H          -1.4054   -0.7607   -0.0009 H       1  LIG1        0.0621
      8 H          -2.5135   -3.1487    0.0004 H       1  LIG1        0.0633
      9 H          -5.2431   -3.1437    0.0002 H       1  LIG1        0.0830
     10 C          -2.6845    1.5413   -0.0003 C.3     1  LIG1       -0.0377
     11 H          -3.3112    2.2468    0.5041 H       1  LIG1        0.0278
     12 H          -2.5273    1.8613   -1.0092 H       1  LIG1        0.0278
     13 H          -1.7430    1.4761    0.5040 H       1  LIG1        0.0278
     14 C          -4.8196    2.6153   -0.0003 C.ar    1  LIG1        0.0374
     15 C          -5.4065    1.3366   -0.0004 C.ar    1  LIG1        0.0190
     16 C          -6.7994    1.2424   -0.0003 C.ar    1  LIG1       -0.0462
     17 C          -7.5524    2.4178   -0.0003 C.ar    1  LIG1       -0.0239
     18 C          -6.8736    3.6502   -0.0004 C.ar    1  LIG1        0.0739
     19 N          -5.5307    3.7594   -0.0003 N.ar    1  LIG1       -0.2541
     20 H          -7.2937    0.2606   -0.0014 H       1  LIG1        0.0628
     21 H          -3.5271    2.7543   -0.0003 H       1  LIG1        0.0836
     22 C          -8.8523    2.3834   -0.0004 C.3     1  LIG1       -0.0377
     23 H          -9.1858    1.5006    0.5040 H       1  LIG1        0.0278
     24 H          -9.2088    2.3739   -1.0093 H       1  LIG1        0.0278
     25 H          -9.2320    3.2473    0.5039 H       1  LIG1        0.0278
     26 C          -6.8310    5.9958    0.0005 C.ar    1  LIG1       -0.0520
     27 C          -7.5886    7.1830    0.0022 C.ar    1  LIG1       -0.0531
     28 C          -7.5307    4.7718   -0.0003 C.ar    1  LIG1        0.0009
     29 C          -8.9814    7.1551    0.0023 C.ar    1  LIG1       -0.0135
     30 H          -7.0688    8.1385    0.0030 H       1  LIG1        0.0624
     31 C          -8.9211    4.7434   -0.0001 C.ar    1  LIG1       -0.0491
     32 C          -9.6560    5.9336    0.0011 C.ar    1  LIG1       -0.0421
     33 H          -9.4376    3.7869   -0.0006 H       1  LIG1        0.0627
     34 H          -5.5341    6.0859    0.0002 H       1  LIG1        0.0624
     35 C         -10.9559    5.9008    0.0014 C.3     1  LIG1       -0.0391
     36 H         -11.2903    5.0184    0.5060 H       1  LIG1        0.0278
     37 H         -11.3127    5.8917   -1.0073 H       1  LIG1        0.0278
     38 H         -11.3343    6.7652    0.5059 H       1  LIG1        0.0278
     39 C         -11.0562    8.2567    0.0047 C.ar    1  LIG1        0.0353
     40 C          -9.6493    8.2703    0.0037 C.ar    1  LIG1        0.0007
     41 C          -8.9946    9.5034    0.0047 C.ar    1  LIG1       -0.0482
     42 C          -9.7600   10.6707    0.0063 C.ar    1  LIG1       -0.0318
     43 C         -11.1621   10.5543    0.0069 C.ar    1  LIG1        0.0305
     44 N         -11.8102    9.3730    0.0062 N.ar    1  LIG1       -0.2624
     45 H          -7.8965    9.5537    0.0030 H       1  LIG1        0.0627
     46 H         -11.9177   11.6121    0.0085 H       1  LIG1        0.0832
     47 H         -11.7109    7.1336    0.0040 H       1  LIG1        0.0836
     48 C          -9.1978   11.8432    0.0071 C.3     1  LIG1       -0.0383
     49 H          -9.8315   12.5423    0.5117 H       1  LIG1        0.0278
     50 H          -9.0434   12.1654   -1.0016 H       1  LIG1        0.0278
     51 H          -8.2559   11.7868    0.5116 H       1  LIG1        0.0278
@<TRIPOS>BOND
     1    24    22    1
     2    12    10    1
     3    37    35    1
     4    50    48    1
     5    20    16    1
     6     7     3    1
     7    33    31    1
     8    15    16   ar
     9    15     5    1
    10    15    14   ar
    11    22    17    1
    12    22    25    1
    13    22    23    1
    14    18    17   ar
    15    18    28    1
    16    18    19   ar
    17    16    17   ar
    18     5     6   ar
    19     5     4   ar
    20    10     4    1
    21    10    13    1
    22    10    11    1
    23    28    31   ar
    24    28    26   ar
    25    14    19   ar
    26    14    21    1
    27     6     1   ar
    28     4     3   ar
    29    31    32   ar
    30     3     2   ar
    31     2     1   ar
    32     2     8    1
    33     1     9    1
    34    34    26    1
    35    26    27   ar
    36    32    35    1
    37    32    29   ar
    38    35    38    1
    39    35    36    1
    40    27    29   ar
    41    27    30    1
    42    29    40    1
    43    45    41    1
    44    40    39   ar
    45    40    41   ar
    46    47    39    1
    47    39    44   ar
    48    41    42   ar
    49    44    43   ar
    50    42    43   ar
    51    42    48    1
    52    43    46    1
    53    48    51    1
    54    48    49    1
