@<TRIPOS>MOLECULE
mol_data/noopt/geoms/mol2/6ai6ai-6ai.out
 38 40 0 0 0
SMALL
GASTEIGER

@<TRIPOS>ATOM
      1 C          -4.5775   -2.0270    0.0001 C.ar    1  LIG1        0.0283
      2 C          -3.1706   -2.0270    0.0001 C.ar    1  LIG1       -0.0433
      3 C          -2.5039   -0.8004    0.0001 C.ar    1  LIG1       -0.0554
      4 C          -3.2580    0.3743   -0.0001 C.ar    1  LIG1       -0.0244
      5 C          -4.6612    0.2715   -0.0003 C.ar    1  LIG1        0.0753
      6 N          -5.3207   -0.9034   -0.0001 N.ar    1  LIG1       -0.2547
      7 H          -1.4054   -0.7607   -0.0009 H       1  LIG1        0.0621
      8 H          -2.5135   -3.1487    0.0004 H       1  LIG1        0.0633
      9 H          -5.2431   -3.1437    0.0002 H       1  LIG1        0.0830
     10 C          -2.6845    1.5413   -0.0003 C.3     1  LIG1       -0.0377
     11 H          -3.3112    2.2468    0.5041 H       1  LIG1        0.0278
     12 H          -2.5273    1.8613   -1.0092 H       1  LIG1        0.0278
     13 H          -1.7430    1.4761    0.5040 H       1  LIG1        0.0278
     14 C          -4.8196    2.6153   -0.0003 C.ar    1  LIG1        0.0374
     15 C          -5.4065    1.3366   -0.0004 C.ar    1  LIG1        0.0190
     16 C          -6.7994    1.2424   -0.0003 C.ar    1  LIG1       -0.0462
     17 C          -7.5524    2.4178   -0.0003 C.ar    1  LIG1       -0.0238
     18 C          -6.8736    3.6502   -0.0004 C.ar    1  LIG1        0.0753
     19 N          -5.5307    3.7594   -0.0003 N.ar    1  LIG1       -0.2540
     20 H          -7.2937    0.2606   -0.0014 H       1  LIG1        0.0628
     21 H          -3.5271    2.7543   -0.0003 H       1  LIG1        0.0836
     22 C          -8.8523    2.3834   -0.0004 C.3     1  LIG1       -0.0377
     23 H          -9.1858    1.5006    0.5040 H       1  LIG1        0.0278
     24 H          -9.2088    2.3739   -1.0093 H       1  LIG1        0.0278
     25 H          -9.2320    3.2473    0.5039 H       1  LIG1        0.0278
     26 C          -8.9376    4.7719   -0.0001 C.ar    1  LIG1        0.0367
     27 C          -7.5307    4.7719   -0.0003 C.ar    1  LIG1        0.0189
     28 C          -6.8640    5.9985   -0.0001 C.ar    1  LIG1       -0.0468
     29 C          -7.6181    7.1732    0.0002 C.ar    1  LIG1       -0.0317
     30 C          -9.0213    7.0704    0.0002 C.ar    1  LIG1        0.0305
     31 N          -9.6808    5.8955    0.0002 N.ar    1  LIG1       -0.2623
     32 H          -5.7655    6.0382   -0.0012 H       1  LIG1        0.0628
     33 H          -9.7666    8.1355    0.0005 H       1  LIG1        0.0832
     34 H          -9.6032    3.6552   -0.0002 H       1  LIG1        0.0836
     35 C          -7.0446    8.3402    0.0002 C.3     1  LIG1       -0.0383
     36 H          -7.6713    9.0456    0.5046 H       1  LIG1        0.0278
     37 H          -6.8873    8.6603   -1.0086 H       1  LIG1        0.0278
     38 H          -6.1032    8.2749    0.5046 H       1  LIG1        0.0278
@<TRIPOS>BOND
     1    24    22    1
     2    12    10    1
     3    37    35    1
     4    20    16    1
     5    32    28    1
     6     7     3    1
     7    15    16   ar
     8    15     5    1
     9    15    14   ar
    10    22    17    1
    11    22    25    1
    12    22    23    1
    13    18    17   ar
    14    18    27    1
    15    18    19   ar
    16    16    17   ar
    17     5     6   ar
    18     5     4   ar
    19    10     4    1
    20    10    13    1
    21    10    11    1
    22    27    26   ar
    23    27    28   ar
    24    14    19   ar
    25    14    21    1
    26    34    26    1
    27     6     1   ar
    28     4     3   ar
    29    26    31   ar
    30    28    29   ar
    31     1     2   ar
    32     1     9    1
    33     3     2   ar
    34     2     8    1
    35    31    30   ar
    36    30    29   ar
    37    30    33    1
    38    29    35    1
    39    35    38    1
    40    35    36    1
