@<TRIPOS>MOLECULE
mol_data/noopt/geoms/mol2/6ai6ai-6ai6ai-.out
 50 53 0 0 0
SMALL
GASTEIGER

@<TRIPOS>ATOM
      1 C          -4.5775   -2.0270    0.0001 C.ar    1  LIG1        0.0283
      2 C          -3.1706   -2.0270    0.0001 C.ar    1  LIG1       -0.0433
      3 C          -2.5039   -0.8004    0.0001 C.ar    1  LIG1       -0.0554
      4 C          -3.2580    0.3743   -0.0001 C.ar    1  LIG1       -0.0244
      5 C          -4.6612    0.2715   -0.0003 C.ar    1  LIG1        0.0753
      6 N          -5.3207   -0.9034   -0.0001 N.ar    1  LIG1       -0.2547
      7 H          -1.4054   -0.7607   -0.0009 H       1  LIG1        0.0621
      8 H          -2.5135   -3.1487    0.0004 H       1  LIG1        0.0633
      9 H          -5.2431   -3.1437    0.0002 H       1  LIG1        0.0830
     10 C          -2.6845    1.5413   -0.0003 C.3     1  LIG1       -0.0377
     11 H          -3.3112    2.2468    0.5041 H       1  LIG1        0.0278
     12 H          -2.5273    1.8613   -1.0092 H       1  LIG1        0.0278
     13 H          -1.7430    1.4761    0.5040 H       1  LIG1        0.0278
     14 C          -4.8196    2.6153   -0.0003 C.ar    1  LIG1        0.0374
     15 C          -5.4065    1.3366   -0.0004 C.ar    1  LIG1        0.0190
     16 C          -6.7994    1.2424   -0.0003 C.ar    1  LIG1       -0.0462
     17 C          -7.5524    2.4178   -0.0003 C.ar    1  LIG1       -0.0238
     18 C          -6.8736    3.6502   -0.0004 C.ar    1  LIG1        0.0753
     19 N          -5.5307    3.7594   -0.0003 N.ar    1  LIG1       -0.2540
     20 H          -7.2937    0.2606   -0.0014 H       1  LIG1        0.0628
     21 H          -3.5271    2.7543   -0.0003 H       1  LIG1        0.0836
     22 C          -8.8523    2.3834   -0.0004 C.3     1  LIG1       -0.0377
     23 H          -9.1858    1.5006    0.5040 H       1  LIG1        0.0278
     24 H          -9.2088    2.3739   -1.0093 H       1  LIG1        0.0278
     25 H          -9.2320    3.2473    0.5039 H       1  LIG1        0.0278
     26 C          -8.9376    4.7719   -0.0001 C.ar    1  LIG1        0.0374
     27 C          -7.5307    4.7719   -0.0003 C.ar    1  LIG1        0.0190
     28 C          -6.8640    5.9985   -0.0001 C.ar    1  LIG1       -0.0462
     29 C          -7.6181    7.1732    0.0002 C.ar    1  LIG1       -0.0238
     30 C          -9.0213    7.0704    0.0002 C.ar    1  LIG1        0.0753
     31 N          -9.6808    5.8955    0.0002 N.ar    1  LIG1       -0.2540
     32 H          -5.7655    6.0382   -0.0012 H       1  LIG1        0.0628
     33 H          -9.6032    3.6552   -0.0002 H       1  LIG1        0.0836
     34 C          -7.0446    8.3402    0.0002 C.3     1  LIG1       -0.0377
     35 H          -7.6713    9.0456    0.5046 H       1  LIG1        0.0278
     36 H          -6.8873    8.6603   -1.0086 H       1  LIG1        0.0278
     37 H          -6.1032    8.2749    0.5046 H       1  LIG1        0.0278
     38 C          -9.1798    9.4141    0.0008 C.ar    1  LIG1        0.0367
     39 C          -9.7667    8.1355    0.0005 C.ar    1  LIG1        0.0189
     40 C         -11.1596    8.0413    0.0008 C.ar    1  LIG1       -0.0468
     41 C         -11.9126    9.2167    0.0012 C.ar    1  LIG1       -0.0317
     42 C         -11.2338   10.4491    0.0013 C.ar    1  LIG1        0.0305
     43 N          -9.8909   10.5583    0.0012 N.ar    1  LIG1       -0.2623
     44 H         -11.6539    7.0595   -0.0005 H       1  LIG1        0.0628
     45 H         -11.8909   11.5707    0.0018 H       1  LIG1        0.0832
     46 H          -7.8872    9.5532    0.0006 H       1  LIG1        0.0836
     47 C         -13.2124    9.1822    0.0013 C.3     1  LIG1       -0.0383
     48 H         -13.5458    8.2995    0.5058 H       1  LIG1        0.0278
     49 H         -13.5691    9.1727   -1.0075 H       1  LIG1        0.0278
     50 H         -13.5920   10.0462    0.5057 H       1  LIG1        0.0278
@<TRIPOS>BOND
     1    24    22    1
     2    12    10    1
     3    36    34    1
     4    49    47    1
     5    20    16    1
     6    32    28    1
     7     7     3    1
     8    44    40    1
     9    15    16   ar
    10    15     5    1
    11    15    14   ar
    12    22    17    1
    13    22    25    1
    14    22    23    1
    15    18    17   ar
    16    18    27    1
    17    18    19   ar
    18    16    17   ar
    19     5     6   ar
    20     5     4   ar
    21    10     4    1
    22    10    13    1
    23    10    11    1
    24    27    26   ar
    25    27    28   ar
    26    14    19   ar
    27    14    21    1
    28    33    26    1
    29     6     1   ar
    30     4     3   ar
    31    26    31   ar
    32    28    29   ar
    33     1     2   ar
    34     1     9    1
    35     2     3   ar
    36     2     8    1
    37    31    30   ar
    38    30    29   ar
    39    30    39    1
    40    29    34    1
    41    34    37    1
    42    34    35    1
    43    39    40   ar
    44    39    38   ar
    45    46    38    1
    46    40    41   ar
    47    38    43   ar
    48    41    42   ar
    49    41    47    1
    50    43    42   ar
    51    42    45    1
    52    47    50    1
    53    47    48    1
