@<TRIPOS>MOLECULE
mol_data/noopt/geoms/mol2/6ai6ai-.out
 26 27 0 0 0
SMALL
GASTEIGER

@<TRIPOS>ATOM
      1 C          -4.5775   -2.0270    0.0001 C.ar    1  LIG1        0.0283
      2 C          -3.1706   -2.0270    0.0001 C.ar    1  LIG1       -0.0433
      3 C          -2.5039   -0.8004    0.0001 C.ar    1  LIG1       -0.0554
      4 C          -3.2580    0.3743   -0.0001 C.ar    1  LIG1       -0.0244
      5 C          -4.6612    0.2715   -0.0003 C.ar    1  LIG1        0.0753
      6 N          -5.3207   -0.9034   -0.0001 N.ar    1  LIG1       -0.2547
      7 H          -1.4054   -0.7607   -0.0009 H       1  LIG1        0.0621
      8 H          -2.5135   -3.1487    0.0004 H       1  LIG1        0.0633
      9 H          -5.2431   -3.1437    0.0002 H       1  LIG1        0.0830
     10 C          -2.6845    1.5413   -0.0003 C.3     1  LIG1       -0.0377
     11 H          -3.3112    2.2468    0.5041 H       1  LIG1        0.0278
     12 H          -2.5273    1.8613   -1.0092 H       1  LIG1        0.0278
     13 H          -1.7430    1.4761    0.5040 H       1  LIG1        0.0278
     14 C          -4.8196    2.6153   -0.0003 C.ar    1  LIG1        0.0367
     15 C          -5.4065    1.3366   -0.0004 C.ar    1  LIG1        0.0189
     16 C          -6.7994    1.2424   -0.0003 C.ar    1  LIG1       -0.0468
     17 C          -7.5524    2.4178   -0.0003 C.ar    1  LIG1       -0.0317
     18 C          -6.8736    3.6502   -0.0004 C.ar    1  LIG1        0.0305
     19 N          -5.5307    3.7594   -0.0003 N.ar    1  LIG1       -0.2623
     20 H          -7.2937    0.2606   -0.0014 H       1  LIG1        0.0628
     21 H          -7.5307    4.7719   -0.0003 H       1  LIG1        0.0832
     22 H          -3.5271    2.7543   -0.0003 H       1  LIG1        0.0836
     23 C          -8.8523    2.3834   -0.0004 C.3     1  LIG1       -0.0383
     24 H          -9.1858    1.5006    0.5040 H       1  LIG1        0.0278
     25 H          -9.2088    2.3739   -1.0093 H       1  LIG1        0.0278
     26 H          -9.2320    3.2473    0.5039 H       1  LIG1        0.0278
@<TRIPOS>BOND
     1    25    23    1
     2    12    10    1
     3    20    16    1
     4     7     3    1
     5    15    16   ar
     6    15     5    1
     7    15    14   ar
     8    23    17    1
     9    23    26    1
    10    23    24    1
    11    18    17   ar
    12    18    21    1
    13    18    19   ar
    14    16    17   ar
    15    10     4    1
    16    10    13    1
    17    10    11    1
    18     5     6   ar
    19     5     4   ar
    20    14    19   ar
    21    14    22    1
    22     6     1   ar
    23     4     3   ar
    24     1     2   ar
    25     1     9    1
    26     3     2   ar
    27     2     8    1
