@<TRIPOS>MOLECULE
mol_data/noopt/geoms/mol2/6al13dl(30)13da(170)13ah(150).out
 47 50 0 0 0
SMALL
GASTEIGER

@<TRIPOS>ATOM
      1 C          -4.5775   -2.0270    0.0001 C.ar    1  LIG1        0.0286
      2 C          -3.1706   -2.0270    0.0001 C.ar    1  LIG1       -0.0401
      3 C          -2.5039   -0.8004    0.0001 C.ar    1  LIG1       -0.0163
      4 C          -3.2580    0.3743   -0.0001 C.ar    1  LIG1        0.1474
      5 C          -4.6612    0.2715   -0.0003 C.ar    1  LIG1        0.1299
      6 N          -5.3207   -0.9034   -0.0001 N.ar    1  LIG1       -0.2498
      7 H          -1.4054   -0.7607   -0.0009 H       1  LIG1        0.0655
      8 H          -2.5135   -3.1487    0.0004 H       1  LIG1        0.0634
      9 H          -5.2431   -3.1437    0.0002 H       1  LIG1        0.0830
     10 O          -2.6846    1.5410   -0.0003 O.3     1  LIG1       -0.4929
     11 C          -1.2643    1.3748   -0.0004 C.3     1  LIG1        0.0789
     12 H          -0.7927    2.3353   -0.0008 H       1  LIG1        0.0660
     13 H          -0.9685    0.8326    0.8734 H       1  LIG1        0.0660
     14 H          -0.9687    0.8321   -0.8739 H       1  LIG1        0.0660
     15 C          -5.4065    1.3366   -0.0004 C.ar    1  LIG1        0.0903
     16 C          -5.1635    2.5832    0.4844 C.ar    1  LIG1        0.1208
     17 C          -6.3254    3.3781    0.2223 C.ar    1  LIG1        0.1647
     18 C          -7.2267    2.5828   -0.4128 C.ar    1  LIG1        0.1082
     19 N          -6.6683    1.3320   -0.5508 N.ar    1  LIG1       -0.3477
     20 H          -7.1065    0.5499   -0.9802 H       1  LIG1        0.1661
     21 N          -3.1166    3.3242    1.6011 N.1     1  LIG1       -0.1907
     22 C          -4.0759    2.9769    1.0778 C.1     1  LIG1        0.1050
     23 O          -6.4913    4.6296    0.5324 O.3     1  LIG1       -0.4916
     24 C          -5.2159    5.2663    0.6461 C.3     1  LIG1        0.0789
     25 H          -5.3530    6.2964    0.9012 H       1  LIG1        0.0660
     26 H          -4.6429    4.7830    1.4097 H       1  LIG1        0.0660
     27 H          -4.6976    5.1959   -0.2872 H       1  LIG1        0.0660
     28 C          -8.4216    2.8459   -0.8522 C.ar    1  LIG1        0.0846
     29 C          -9.5066    2.0392   -0.9939 C.ar    1  LIG1        0.0791
     30 C         -10.5684    2.8400   -1.5249 C.ar    1  LIG1       -0.0169
     31 C         -10.0860    4.1011   -1.6828 C.ar    1  LIG1        0.0647
     32 N          -8.7719    4.1091   -1.2726 N.ar    1  LIG1       -0.3508
     33 H          -8.1716    4.9013   -1.2783 H       1  LIG1        0.1660
     34 N          -9.6169   -0.3421   -0.4436 N.1     1  LIG1       -0.1908
     35 C          -9.5652    0.7739   -0.7015 C.1     1  LIG1        0.1014
     36 H         -11.7727    2.4388   -1.8052 H       1  LIG1        0.0652
     37 C         -10.6651    5.1761   -2.1291 C.ar    1  LIG1        0.0647
     38 C         -11.9412    5.6189   -1.9757 C.ar    1  LIG1       -0.0143
     39 C         -12.0493    6.8631   -2.6763 C.ar    1  LIG1        0.0427
     40 C         -10.8340    7.1267   -3.2257 C.ar    1  LIG1        0.0230
     41 N          -9.9838    6.0962   -2.8935 N.ar    1  LIG1       -0.3579
     42 H          -9.0293    6.0277   -3.1623 H       1  LIG1        0.1654
     43 H         -10.4349    8.1308   -3.9485 H       1  LIG1        0.0826
     44 H         -12.8870    5.0197   -1.3150 H       1  LIG1        0.0658
     45 N         -13.1115    7.6065   -2.7715 N.pl3   1  LIG1       -0.3568
     46 H         -12.8875    8.4463   -3.2660 H       1  LIG1        0.1424
     47 H         -13.8237    7.1084   -3.2660 H       1  LIG1        0.1424
@<TRIPOS>BOND
     1    43    40    1
     2    47    45    1
     3    46    45    1
     4    40    41   ar
     5    40    39   ar
     6    42    41    1
     7    41    37   ar
     8    45    39    1
     9    39    38   ar
    10    37    38   ar
    11    37    31    1
    12    38    44    1
    13    36    30    1
    14    31    30   ar
    15    31    32   ar
    16    30    29   ar
    17    33    32    1
    18    32    28   ar
    19    29    28   ar
    20    29    35    1
    21    20    19    1
    22    14    11    1
    23    28    18    1
    24    35    34    3
    25    19    18   ar
    26    19    15   ar
    27    18    17   ar
    28    27    24    1
    29     7     3    1
    30    12    11    1
    31    11    10    1
    32    11    13    1
    33    15     5    1
    34    15    16   ar
    35    10     4    1
    36     5     6   ar
    37     5     4   ar
    38     6     1   ar
    39     4     3   ar
    40     1     2   ar
    41     1     9    1
    42     3     2   ar
    43     2     8    1
    44    17    16   ar
    45    17    23    1
    46    16    22    1
    47    23    24    1
    48    24    25    1
    49    24    26    1
    50    22    21    3
