@<TRIPOS>MOLECULE
mol_data/noopt/geoms/mol2/6al13ff-6af-12hl.out
 48 51 0 0 0
SMALL
GASTEIGER

@<TRIPOS>ATOM
      1 C          -4.5775   -2.0270    0.0001 C.ar    1  LIG1        0.0286
      2 C          -3.1706   -2.0270    0.0001 C.ar    1  LIG1       -0.0401
      3 C          -2.5039   -0.8004    0.0001 C.ar    1  LIG1       -0.0163
      4 C          -3.2580    0.3743   -0.0001 C.ar    1  LIG1        0.1475
      5 C          -4.6612    0.2715   -0.0003 C.ar    1  LIG1        0.1322
      6 N          -5.3207   -0.9034   -0.0001 N.ar    1  LIG1       -0.2497
      7 H          -1.4054   -0.7607   -0.0009 H       1  LIG1        0.0655
      8 H          -2.5135   -3.1487    0.0004 H       1  LIG1        0.0634
      9 H          -5.2431   -3.1437    0.0002 H       1  LIG1        0.0830
     10 O          -2.6846    1.5410   -0.0003 O.3     1  LIG1       -0.4929
     11 C          -1.2643    1.3748   -0.0004 C.3     1  LIG1        0.0789
     12 H          -0.7927    2.3353   -0.0008 H       1  LIG1        0.0660
     13 H          -0.9685    0.8326    0.8734 H       1  LIG1        0.0660
     14 H          -0.9687    0.8321   -0.8739 H       1  LIG1        0.0660
     15 C          -5.4065    1.3366   -0.0004 C.ar    1  LIG1        0.1148
     16 C          -5.0647    2.6523    0.0158 C.ar    1  LIG1        0.1864
     17 C          -6.2798    3.4100    0.0080 C.ar    1  LIG1        0.1849
     18 C          -7.3107    2.5241   -0.0144 C.ar    1  LIG1        0.0943
     19 N          -6.7805    1.2536   -0.0191 N.ar    1  LIG1       -0.3469
     20 H          -7.3063    0.4102   -0.0343 H       1  LIG1        0.1662
     21 O          -3.8561    3.1306    0.0362 O.3     1  LIG1       -0.5019
     22 H          -3.8912    4.0900    0.0412 H       1  LIG1        0.2924
     23 O          -6.3823    4.7059    0.0196 O.3     1  LIG1       -0.5019
     24 H          -7.3096    4.9540    0.0225 H       1  LIG1        0.2924
     25 C          -9.4846    1.6350   -0.0579 C.ar    1  LIG1        0.0378
     26 C          -8.5951    2.7246   -0.0290 C.ar    1  LIG1        0.0236
     27 C          -9.1237    4.0166   -0.0160 C.ar    1  LIG1       -0.0073
     28 C         -10.5104    4.1755   -0.0326 C.ar    1  LIG1        0.1464
     29 C         -11.3180    3.0238   -0.0616 C.ar    1  LIG1        0.1491
     30 N         -10.8249    1.7700   -0.0742 N.ar    1  LIG1       -0.2475
     31 H          -8.4598    4.8925    0.0056 H       1  LIG1        0.0662
     32 H          -9.0405    0.4133   -0.0708 H       1  LIG1        0.0836
     33 O         -11.0516    5.3575   -0.0217 O.3     1  LIG1       -0.5045
     34 H         -12.0078    5.2721   -0.0190 H       1  LIG1        0.2922
     35 C         -12.6143    3.1202   -0.0777 C.ar    1  LIG1        0.1807
     36 C         -13.5233    4.1578   -0.0752 C.ar    1  LIG1        0.1149
     37 C         -14.8401    3.5558   -0.1016 C.ar    1  LIG1        0.1789
     38 C         -14.6482    2.1896   -0.1187 C.ar    1  LIG1        0.1361
     39 O         -13.2842    1.8962   -0.1045 O.2     1  LIG1       -0.4556
     40 H         -15.4226    1.1457   -0.1441 H       1  LIG1        0.1068
     41 N         -13.2745    5.4336   -0.0534 N.pl3   1  LIG1       -0.3521
     42 H         -12.4078    5.6121   -0.5192 H       1  LIG1        0.1425
     43 H         -14.0105    5.9247   -0.5192 H       1  LIG1        0.1425
     44 O         -15.9684    4.2015   -0.1076 O.3     1  LIG1       -0.4901
     45 C         -15.7131    5.6085   -0.1099 C.3     1  LIG1        0.0790
     46 H         -16.6421    6.1395   -0.1150 H       1  LIG1        0.0660
     47 H         -15.1568    5.8715    0.7655 H       1  LIG1        0.0660
     48 H         -15.1495    5.8673   -0.9818 H       1  LIG1        0.0660
@<TRIPOS>BOND
     1    48    45    1
     2    14    11    1
     3    43    41    1
     4    42    41    1
     5    40    38    1
     6    38    39   ar
     7    38    37   ar
     8    46    45    1
     9    45    44    1
    10    45    47    1
    11    44    37    1
    12    39    35   ar
    13    37    36   ar
    14    35    36   ar
    15    35    29    1
    16    36    41    1
    17    30    29   ar
    18    30    25   ar
    19    32    25    1
    20    29    28   ar
    21    25    26   ar
    22    20    19    1
    23    28    33    1
    24    28    27   ar
    25    26    27   ar
    26    26    18    1
    27    33    34    1
    28    19    18   ar
    29    19    15   ar
    30    27    31    1
    31    18    17   ar
    32     7     3    1
    33    12    11    1
    34    11    10    1
    35    11    13    1
    36    15     5    1
    37    15    16   ar
    38     5     4   ar
    39     5     6   ar
    40    10     4    1
    41     4     3   ar
    42     6     1   ar
    43     2     1   ar
    44     2     3   ar
    45     2     8    1
    46     1     9    1
    47    17    16   ar
    48    17    23    1
    49    16    21    1
    50    23    24    1
    51    21    22    1
