@<TRIPOS>MOLECULE
mol_data/noopt/geoms/mol2/6al12ie-12hf4aa.out
 47 50 0 0 0
SMALL
GASTEIGER

@<TRIPOS>ATOM
      1 C          -4.5775   -2.0270    0.0001 C.ar    1  LIG1        0.0286
      2 C          -3.1706   -2.0270    0.0001 C.ar    1  LIG1       -0.0401
      3 C          -2.5039   -0.8004    0.0001 C.ar    1  LIG1       -0.0163
      4 C          -3.2580    0.3743   -0.0001 C.ar    1  LIG1        0.1490
      5 C          -4.6612    0.2715   -0.0003 C.ar    1  LIG1        0.1476
      6 N          -5.3207   -0.9034   -0.0001 N.ar    1  LIG1       -0.2482
      7 H          -1.4054   -0.7607   -0.0009 H       1  LIG1        0.0655
      8 H          -2.5135   -3.1487    0.0004 H       1  LIG1        0.0634
      9 H          -5.2431   -3.1437    0.0002 H       1  LIG1        0.0830
     10 O          -2.6846    1.5410   -0.0003 O.3     1  LIG1       -0.4929
     11 C          -1.2643    1.3748   -0.0004 C.3     1  LIG1        0.0789
     12 H          -0.7927    2.3353   -0.0008 H       1  LIG1        0.0660
     13 H          -0.9685    0.8326    0.8734 H       1  LIG1        0.0660
     14 H          -0.9687    0.8321   -0.8739 H       1  LIG1        0.0660
     15 C          -5.4065    1.3366   -0.0004 C.ar    1  LIG1        0.1616
     16 C          -5.1777    2.6969    0.0143 C.ar    1  LIG1        0.0131
     17 C          -6.4770    3.3362    0.0035 C.ar    1  LIG1        0.0771
     18 C          -7.4140    2.3237   -0.0171 C.ar    1  LIG1        0.1882
     19 O          -6.7784    1.0815   -0.0201 O.2     1  LIG1       -0.4485
     20 C          -4.0318    3.3111    0.0342 C.3     1  LIG1       -0.0349
     21 H          -4.1369    4.2459    0.5440 H       1  LIG1        0.0279
     22 H          -3.7039    3.4869   -0.9691 H       1  LIG1        0.0279
     23 H          -3.3115    2.7058    0.5439 H       1  LIG1        0.0279
     24 C          -6.6906    4.6185    0.0120 C.1     1  LIG1       -0.0655
     25 C          -6.8879    5.8034    0.0199 C.1     1  LIG1       -0.1138
     26 H          -7.0636    6.8588    0.0268 H       1  LIG1        0.1232
     27 C          -8.7125    2.2634   -0.0340 C.ar    1  LIG1        0.1960
     28 C          -9.7397    3.1842   -0.0320 C.ar    1  LIG1        0.1169
     29 C         -10.9745    2.4282   -0.0591 C.ar    1  LIG1        0.1846
     30 C         -10.6196    1.0950   -0.0760 C.ar    1  LIG1        0.1789
     31 O          -9.2302    0.9677   -0.0611 O.2     1  LIG1       -0.4460
     32 N          -9.6461    4.4807   -0.0101 N.pl3   1  LIG1       -0.3521
     33 H          -8.8072    4.7622   -0.4759 H       1  LIG1        0.1425
     34 H         -10.4359    4.8798   -0.4759 H       1  LIG1        0.1425
     35 O         -12.1723    2.9335   -0.0657 O.3     1  LIG1       -0.5020
     36 H         -12.8192    2.2242   -0.0673 H       1  LIG1        0.2924
     37 C         -12.6727   -0.0397   -0.1150 C.ar    1  LIG1       -0.0510
     38 C         -13.3224   -1.2889   -0.1414 C.ar    1  LIG1       -0.0611
     39 C         -11.2628   -0.0344   -0.1018 C.ar    1  LIG1        0.0210
     40 C         -12.6023   -2.4813   -0.1548 C.ar    1  LIG1       -0.0617
     41 H         -14.4097   -1.3159   -0.1517 H       1  LIG1        0.0618
     42 C         -10.5434   -1.2245   -0.1151 C.ar    1  LIG1       -0.0510
     43 C         -11.2071   -2.4555   -0.1418 C.ar    1  LIG1       -0.0611
     44 H          -9.4569   -1.1941   -0.1044 H       1  LIG1        0.0625
     45 H         -13.2345   -3.6170   -0.1793 H       1  LIG1        0.0618
     46 H         -13.3987    1.0386   -0.1038 H       1  LIG1        0.0625
     47 H         -10.5294   -3.5648   -0.1540 H       1  LIG1        0.0618
@<TRIPOS>BOND
     1    22    20    1
     2    14    11    1
     3    34    32    1
     4    33    32    1
     5    45    40    1
     6    40    43   ar
     7    40    38   ar
     8    47    43    1
     9    41    38    1
    10    43    42   ar
    11    38    37   ar
    12    42    44    1
    13    42    39   ar
    14    37    46    1
    15    37    39   ar
    16    39    30    1
    17    30    31   ar
    18    30    29   ar
    19    36    35    1
    20    35    29    1
    21    31    27   ar
    22    29    28   ar
    23    27    28   ar
    24    27    18    1
    25    28    32    1
    26    19    18   ar
    27    19    15   ar
    28    18    17   ar
    29     7     3    1
    30    12    11    1
    31    11    10    1
    32    11    13    1
    33    15     5    1
    34    15    16   ar
    35    10     4    1
    36     5     6   ar
    37     5     4   ar
    38     6     1   ar
    39     4     3   ar
    40     1     2   ar
    41     1     9    1
    42     3     2   ar
    43     2     8    1
    44    17    24    1
    45    17    16   ar
    46    24    25    3
    47    16    20    1
    48    25    26    1
    49    20    23    1
    50    20    21    1
