@<TRIPOS>MOLECULE
mol_data/noopt/geoms/mol2/6al12fi(10)12lh(200)13le(320).out
 53 56 0 0 0
SMALL
GASTEIGER

@<TRIPOS>ATOM
      1 C          -4.5775   -2.0270    0.0001 C.ar    1  LIG1        0.0286
      2 C          -3.1706   -2.0270    0.0001 C.ar    1  LIG1       -0.0401
      3 C          -2.5039   -0.8004    0.0001 C.ar    1  LIG1       -0.0163
      4 C          -3.2580    0.3743   -0.0001 C.ar    1  LIG1        0.1491
      5 C          -4.6612    0.2715   -0.0003 C.ar    1  LIG1        0.1510
      6 N          -5.3207   -0.9034   -0.0001 N.ar    1  LIG1       -0.2481
      7 H          -1.4054   -0.7607   -0.0009 H       1  LIG1        0.0655
      8 H          -2.5135   -3.1487    0.0004 H       1  LIG1        0.0634
      9 H          -5.2431   -3.1437    0.0002 H       1  LIG1        0.0830
     10 O          -2.6846    1.5410   -0.0003 O.3     1  LIG1       -0.4929
     11 C          -1.2643    1.3748   -0.0004 C.3     1  LIG1        0.0789
     12 H          -0.7927    2.3353   -0.0008 H       1  LIG1        0.0660
     13 H          -0.9685    0.8326    0.8734 H       1  LIG1        0.0660
     14 H          -0.9687    0.8321   -0.8739 H       1  LIG1        0.0660
     15 C          -5.4065    1.3366   -0.0004 C.ar    1  LIG1        0.1989
     16 C          -5.1869    2.6905    0.1472 C.ar    1  LIG1        0.1680
     17 C          -6.4796    3.3344    0.0405 C.ar    1  LIG1        0.0407
     18 C          -7.4037    2.3308   -0.1654 C.ar    1  LIG1        0.1809
     19 O          -6.7663    1.0900   -0.1946 O.2     1  LIG1       -0.4459
     20 O          -4.0535    3.2959    0.3444 O.3     1  LIG1       -0.5030
     21 H          -4.2005    4.2434    0.3930 H       1  LIG1        0.2923
     22 C          -6.6985    4.6133    0.1260 C.3     1  LIG1       -0.0325
     23 H          -7.6141    4.7841    0.6528 H       1  LIG1        0.0280
     24 H          -6.7698    5.0295   -0.8572 H       1  LIG1        0.0280
     25 H          -5.8918    5.0788    0.6527 H       1  LIG1        0.0280
     26 C          -8.6917    2.2779   -0.3331 C.ar    1  LIG1        0.2143
     27 C          -9.5904    1.3185   -0.7514 C.ar    1  LIG1        0.1902
     28 C         -10.9020    1.9303   -0.7048 C.ar    1  LIG1        0.1157
     29 C         -10.7178    3.2236   -0.2609 C.ar    1  LIG1        0.1798
     30 O          -9.3634    3.4617   -0.0248 O.2     1  LIG1       -0.4444
     31 O          -9.3369    0.0980   -1.1205 O.3     1  LIG1       -0.4896
     32 C         -10.5637   -0.6242   -1.2561 C.3     1  LIG1        0.0791
     33 H         -10.3547   -1.6286   -1.5600 H       1  LIG1        0.0660
     34 H         -11.0768   -0.6351   -0.3171 H       1  LIG1        0.0660
     35 H         -11.1777   -0.1492   -1.9924 H       1  LIG1        0.0660
     36 N         -12.0205    1.3501   -1.0250 N.pl3   1  LIG1       -0.3521
     37 H         -12.5802    1.9795   -1.5639 H       1  LIG1        0.1425
     38 H         -11.8282    0.5300   -1.5640 H       1  LIG1        0.1425
     39 C         -11.4925    4.2393   -0.0197 C.ar    1  LIG1        0.1275
     40 C         -11.4384    5.5181   -0.4775 C.ar    1  LIG1        0.1636
     41 C         -12.5374    6.2278    0.1049 C.ar    1  LIG1        0.0843
     42 C         -13.2158    5.3510    0.8917 C.ar    1  LIG1        0.0214
     43 N         -12.5792    4.1325    0.8187 N.ar    1  LIG1       -0.3541
     44 H         -12.8600    3.3065    1.2951 H       1  LIG1        0.1656
     45 H         -14.2777    5.5202    1.6222 H       1  LIG1        0.0820
     46 O         -10.5500    6.0041   -1.2928 O.3     1  LIG1       -0.4917
     47 C          -9.5769    4.9999   -1.5921 C.3     1  LIG1        0.0789
     48 H          -8.8460    5.4002   -2.2632 H       1  LIG1        0.0660
     49 H          -9.0975    4.6869   -0.6881 H       1  LIG1        0.0660
     50 H         -10.0590    4.1610   -2.0490 H       1  LIG1        0.0660
     51 C         -12.8350    7.4793   -0.0821 C.1     1  LIG1       -0.0645
     52 C         -13.1099    8.6358   -0.2549 C.1     1  LIG1       -0.1137
     53 H         -13.3549    9.6660   -0.4089 H       1  LIG1        0.1232
@<TRIPOS>BOND
     1    48    47    1
     2    50    47    1
     3    35    32    1
     4    47    46    1
     5    47    49    1
     6    38    36    1
     7    37    36    1
     8    33    32    1
     9    46    40    1
    10    32    31    1
    11    32    34    1
    12    31    27    1
    13    36    28    1
    14    14    11    1
    15    24    22    1
    16    27    28   ar
    17    27    26   ar
    18    28    29   ar
    19    40    39   ar
    20    40    41   ar
    21    53    52    1
    22    26    18    1
    23    26    30   ar
    24    29    30   ar
    25    29    39    1
    26    52    51    3
    27    19    18   ar
    28    19    15   ar
    29    18    17   ar
    30    51    41    1
    31    39    43   ar
    32     7     3    1
    33    12    11    1
    34    11    10    1
    35    11    13    1
    36    15     5    1
    37    15    16   ar
    38    10     4    1
    39     5     4   ar
    40     5     6   ar
    41     4     3   ar
    42     6     1   ar
    43     1     2   ar
    44     1     9    1
    45     2     3   ar
    46     2     8    1
    47    17    22    1
    48    17    16   ar
    49    41    42   ar
    50    22    25    1
    51    22    23    1
    52    16    20    1
    53    20    21    1
    54    43    42   ar
    55    43    44    1
    56    42    45    1
