@<TRIPOS>MOLECULE
mol_data/noopt/geoms/mol2/6al6fe(120)6hh(200)6el(330).out
 55 58 0 0 0
SMALL
GASTEIGER

@<TRIPOS>ATOM
      1 C          -4.5775   -2.0270    0.0001 C.ar    1  LIG1        0.0285
      2 C          -3.1706   -2.0270    0.0001 C.ar    1  LIG1       -0.0401
      3 C          -2.5039   -0.8004    0.0001 C.ar    1  LIG1       -0.0164
      4 C          -3.2580    0.3743   -0.0001 C.ar    1  LIG1        0.1461
      5 C          -4.6612    0.2715   -0.0003 C.ar    1  LIG1        0.1175
      6 N          -5.3207   -0.9034   -0.0001 N.ar    1  LIG1       -0.2511
      7 H          -1.4054   -0.7607   -0.0009 H       1  LIG1        0.0655
      8 H          -2.5135   -3.1487    0.0004 H       1  LIG1        0.0634
      9 H          -5.2431   -3.1437    0.0002 H       1  LIG1        0.0830
     10 O          -2.6846    1.5410   -0.0003 O.3     1  LIG1       -0.4930
     11 C          -1.2643    1.3748   -0.0004 C.3     1  LIG1        0.0789
     12 H          -0.7927    2.3353   -0.0008 H       1  LIG1        0.0660
     13 H          -0.9685    0.8326    0.8734 H       1  LIG1        0.0660
     14 H          -0.9687    0.8321   -0.8739 H       1  LIG1        0.0660
     15 C          -5.3167    2.2674   -1.0516 C.ar    1  LIG1        0.2225
     16 C          -5.4065    1.3366   -0.0004 C.ar    1  LIG1        0.0664
     17 C          -6.3102    1.5848    1.0344 C.ar    1  LIG1       -0.0298
     18 C          -7.0867    2.7438    0.9849 C.ar    1  LIG1        0.0516
     19 C          -6.9247    3.6144   -0.1084 C.ar    1  LIG1        0.0935
     20 N          -6.0579    3.3905   -1.1153 N.ar    1  LIG1       -0.2111
     21 H          -6.4076    0.8809    1.8730 H       1  LIG1        0.0639
     22 O          -4.4902    2.0802   -2.0375 O.3     1  LIG1       -0.4919
     23 H          -4.0866    2.9166   -2.2805 H       1  LIG1        0.2937
     24 C          -7.9422    3.0201    1.9239 C.1     1  LIG1       -0.0675
     25 C          -8.7328    3.2755    2.7915 C.1     1  LIG1       -0.1138
     26 H          -9.4370    3.5029    3.5643 H       1  LIG1        0.1232
     27 C          -7.0631    5.9435    0.1647 C.ar    1  LIG1        0.1262
     28 C          -7.6248    4.7060   -0.1993 C.ar    1  LIG1        0.0429
     29 C          -8.9434    4.6813   -0.6573 C.ar    1  LIG1       -0.0264
     30 C          -9.6502    5.8825   -0.7355 C.ar    1  LIG1        0.0517
     31 C          -9.0018    7.0696   -0.3484 C.ar    1  LIG1        0.0964
     32 N          -7.7304    7.1117    0.0956 N.ar    1  LIG1       -0.2298
     33 H          -9.4164    3.7332   -0.9498 H       1  LIG1        0.0644
     34 N          -5.8392    6.0176    0.5968 N.pl3   1  LIG1       -0.3426
     35 H          -5.3197    5.2310    0.2629 H       1  LIG1        0.1437
     36 H          -5.4183    6.8610    0.2629 H       1  LIG1        0.1437
     37 N         -10.8802    5.9124   -1.1553 N.pl3   1  LIG1       -0.3563
     38 H         -11.0236    6.7327   -1.7091 H       1  LIG1        0.1424
     39 H         -11.0633    5.1002   -1.7091 H       1  LIG1        0.1424
     40 C         -10.8930    8.3621    0.1726 C.ar    1  LIG1        0.1226
     41 C          -9.6181    8.2130   -0.4034 C.ar    1  LIG1        0.0395
     42 C          -9.0366    9.3164   -1.0305 C.ar    1  LIG1       -0.0065
     43 C          -9.7417   10.5208   -1.0611 C.ar    1  LIG1        0.1388
     44 C         -11.0114   10.5711   -0.4571 C.ar    1  LIG1        0.0706
     45 N         -11.5873    9.5164    0.1523 N.ar    1  LIG1       -0.2424
     46 H          -8.0423    9.2377   -1.4926 H       1  LIG1        0.0662
     47 H         -11.7065   11.6696   -0.4595 H       1  LIG1        0.0867
     48 C         -11.4754    7.3637    0.7676 C.1     1  LIG1       -0.0491
     49 C         -12.0136    6.4413    1.3174 C.1     1  LIG1       -0.1124
     50 H         -12.4931    5.6195    1.8071 H       1  LIG1        0.1232
     51 O          -9.2437   11.5768   -1.6329 O.3     1  LIG1       -0.4936
     52 C          -7.8417   11.3895   -1.8429 C.3     1  LIG1        0.0789
     53 H          -7.4323   12.2588   -2.3136 H       1  LIG1        0.0660
     54 H          -7.3579   11.2325   -0.9015 H       1  LIG1        0.0660
     55 H          -7.6857   10.5372   -2.4706 H       1  LIG1        0.0660
@<TRIPOS>BOND
     1    55    52    1
     2    53    52    1
     3    23    22    1
     4    22    15    1
     5    52    51    1
     6    52    54    1
     7    39    37    1
     8    38    37    1
     9    51    43    1
    10    46    42    1
    11    37    30    1
    12    20    15   ar
    13    20    19   ar
    14    43    42   ar
    15    43    44   ar
    16    15    16   ar
    17    42    41   ar
    18    33    29    1
    19    14    11    1
    20    30    29   ar
    21    30    31   ar
    22    29    28   ar
    23    47    44    1
    24    44    45   ar
    25    41    31    1
    26    41    40   ar
    27    31    32   ar
    28    28    19    1
    29    28    27   ar
    30    19    18   ar
    31     7     3    1
    32    12    11    1
    33    11    10    1
    34    11    13    1
    35    16     5    1
    36    16    17   ar
    37    10     4    1
    38     5     6   ar
    39     5     4   ar
    40     6     1   ar
    41     4     3   ar
    42     3     2   ar
    43     1     2   ar
    44     1     9    1
    45     2     8    1
    46    32    27   ar
    47    45    40   ar
    48    27    34    1
    49    40    48    1
    50    36    34    1
    51    35    34    1
    52    48    49    3
    53    18    17   ar
    54    18    24    1
    55    17    21    1
    56    49    50    1
    57    24    25    3
    58    25    26    1
