@<TRIPOS>MOLECULE
mol_data/noopt/geoms/mol2/6al6al6al6al-.out
 54 57 0 0 0
SMALL
GASTEIGER

@<TRIPOS>ATOM
      1 C          -4.5775   -2.0270    0.0001 C.ar    1  LIG1        0.0285
      2 C          -3.1706   -2.0270    0.0001 C.ar    1  LIG1       -0.0401
      3 C          -2.5039   -0.8004    0.0001 C.ar    1  LIG1       -0.0164
      4 C          -3.2580    0.3743   -0.0001 C.ar    1  LIG1        0.1460
      5 C          -4.6612    0.2715   -0.0003 C.ar    1  LIG1        0.1140
      6 N          -5.3207   -0.9034   -0.0001 N.ar    1  LIG1       -0.2513
      7 H          -1.4054   -0.7607   -0.0009 H       1  LIG1        0.0655
      8 H          -2.5135   -3.1487    0.0004 H       1  LIG1        0.0634
      9 H          -5.2431   -3.1437    0.0002 H       1  LIG1        0.0830
     10 O          -2.6846    1.5410   -0.0003 O.3     1  LIG1       -0.4930
     11 C          -1.2643    1.3748   -0.0004 C.3     1  LIG1        0.0789
     12 H          -0.7927    2.3353   -0.0008 H       1  LIG1        0.0660
     13 H          -0.9685    0.8326    0.8734 H       1  LIG1        0.0660
     14 H          -0.9687    0.8321   -0.8739 H       1  LIG1        0.0660
     15 C          -6.8088    1.2233   -0.0003 C.ar    1  LIG1        0.0378
     16 C          -5.4065    1.3366   -0.0004 C.ar    1  LIG1        0.0255
     17 C          -4.8408    2.6129   -0.0003 C.ar    1  LIG1       -0.0071
     18 C          -5.6871    3.7231   -0.0003 C.ar    1  LIG1        0.1466
     19 C          -7.0774    3.5076   -0.0004 C.ar    1  LIG1        0.1140
     20 N          -7.6401    2.2834   -0.0003 N.ar    1  LIG1       -0.2506
     21 H          -3.7491    2.7410   -0.0014 H       1  LIG1        0.0662
     22 H          -7.3823    0.0566   -0.0003 H       1  LIG1        0.0836
     23 O          -5.2095    4.9322   -0.0004 O.3     1  LIG1       -0.4929
     24 C          -3.7804    4.8809   -0.0005 C.3     1  LIG1        0.0789
     25 H          -3.3877    5.8763   -0.0007 H       1  LIG1        0.0660
     26 H          -3.4420    4.3642    0.8733 H       1  LIG1        0.0660
     27 H          -3.4421    4.3639   -0.8740 H       1  LIG1        0.0660
     28 C          -9.2948    4.2833   -0.0001 C.ar    1  LIG1        0.0378
     29 C          -7.9061    4.5092   -0.0003 C.ar    1  LIG1        0.0255
     30 C          -7.4450    5.8270   -0.0001 C.ar    1  LIG1       -0.0071
     31 C          -8.3780    6.8653    0.0002 C.ar    1  LIG1        0.1466
     32 C          -9.7465    6.5385    0.0002 C.ar    1  LIG1        0.1140
     33 N         -10.2087    5.2730    0.0002 N.ar    1  LIG1       -0.2506
     34 H          -6.3672    6.0425   -0.0012 H       1  LIG1        0.0662
     35 H          -9.7724    3.0742   -0.0002 H       1  LIG1        0.0836
     36 O          -7.9993    8.1090    0.0002 O.3     1  LIG1       -0.4929
     37 C          -6.5708    8.1730    0.0001 C.3     1  LIG1        0.0789
     38 H          -6.2596    9.1967   -0.0000 H       1  LIG1        0.0660
     39 H          -6.1918    7.6852    0.8739 H       1  LIG1        0.0660
     40 H          -6.1919    7.6849   -0.8734 H       1  LIG1        0.0660
     41 C         -10.2792    8.8264    0.0008 C.ar    1  LIG1        0.0371
     42 C         -10.6531    7.4702    0.0005 C.ar    1  LIG1        0.0255
     43 C         -12.0128    7.1535    0.0008 C.ar    1  LIG1       -0.0077
     44 C         -12.9448    8.1927    0.0012 C.ar    1  LIG1        0.1387
     45 C         -12.4727    9.5181    0.0013 C.ar    1  LIG1        0.0692
     46 N         -11.1648    9.8416    0.0012 N.ar    1  LIG1       -0.2590
     47 H         -12.3431    6.1051   -0.0005 H       1  LIG1        0.0662
     48 H         -13.3014   10.5197    0.0018 H       1  LIG1        0.0867
     49 H          -9.0257    9.1713    0.0006 H       1  LIG1        0.0836
     50 O         -14.2220    7.9501    0.0013 O.3     1  LIG1       -0.4936
     51 C         -14.9425    9.1853    0.0013 C.3     1  LIG1        0.0789
     52 H         -15.9936    8.9851    0.0012 H       1  LIG1        0.0660
     53 H         -14.6866    9.7475    0.8750 H       1  LIG1        0.0660
     54 H         -14.6865    9.7475   -0.8723 H       1  LIG1        0.0660
@<TRIPOS>BOND
     1    27    24    1
     2    14    11    1
     3    40    37    1
     4    54    51    1
     5    21    17    1
     6    34    30    1
     7     7     3    1
     8    12    11    1
     9    25    24    1
    10    47    43    1
    11    24    23    1
    12    24    26    1
    13    11    10    1
    14    11    13    1
    15    16     5    1
    16    16    15   ar
    17    16    17   ar
    18    19    20   ar
    19    19    29    1
    20    19    18   ar
    21    23    18    1
    22    10     4    1
    23     5     6   ar
    24     5     4   ar
    25    15    22    1
    26    15    20   ar
    27    17    18   ar
    28    29    28   ar
    29    29    30   ar
    30    35    28    1
    31     6     1   ar
    32     4     3   ar
    33    28    33   ar
    34    30    31   ar
    35    38    37    1
    36     1     2   ar
    37     1     9    1
    38     2     3   ar
    39     2     8    1
    40    37    36    1
    41    37    39    1
    42    33    32   ar
    43    32    31   ar
    44    32    42    1
    45    31    36    1
    46    42    43   ar
    47    42    41   ar
    48    49    41    1
    49    43    44   ar
    50    41    46   ar
    51    44    45   ar
    52    44    50    1
    53    46    45   ar
    54    52    51    1
    55    51    50    1
    56    51    53    1
    57    45    48    1
