@<TRIPOS>MOLECULE
mol_data/noopt/geoms/mol2/6al6al6al.out
 41 43 0 0 0
SMALL
GASTEIGER

@<TRIPOS>ATOM
      1 C          -4.5775   -2.0270    0.0001 C.ar    1  LIG1        0.0285
      2 C          -3.1706   -2.0270    0.0001 C.ar    1  LIG1       -0.0401
      3 C          -2.5039   -0.8004    0.0001 C.ar    1  LIG1       -0.0164
      4 C          -3.2580    0.3743   -0.0001 C.ar    1  LIG1        0.1460
      5 C          -4.6612    0.2715   -0.0003 C.ar    1  LIG1        0.1140
      6 N          -5.3207   -0.9034   -0.0001 N.ar    1  LIG1       -0.2513
      7 H          -1.4054   -0.7607   -0.0009 H       1  LIG1        0.0655
      8 H          -2.5135   -3.1487    0.0004 H       1  LIG1        0.0634
      9 H          -5.2431   -3.1437    0.0002 H       1  LIG1        0.0830
     10 O          -2.6846    1.5410   -0.0003 O.3     1  LIG1       -0.4930
     11 C          -1.2643    1.3748   -0.0004 C.3     1  LIG1        0.0789
     12 H          -0.7927    2.3353   -0.0008 H       1  LIG1        0.0660
     13 H          -0.9685    0.8326    0.8734 H       1  LIG1        0.0660
     14 H          -0.9687    0.8321   -0.8739 H       1  LIG1        0.0660
     15 C          -6.8088    1.2233   -0.0003 C.ar    1  LIG1        0.0378
     16 C          -5.4065    1.3366   -0.0004 C.ar    1  LIG1        0.0255
     17 C          -4.8408    2.6129   -0.0003 C.ar    1  LIG1       -0.0071
     18 C          -5.6871    3.7231   -0.0003 C.ar    1  LIG1        0.1466
     19 C          -7.0774    3.5076   -0.0004 C.ar    1  LIG1        0.1140
     20 N          -7.6401    2.2834   -0.0003 N.ar    1  LIG1       -0.2506
     21 H          -3.7491    2.7410   -0.0014 H       1  LIG1        0.0662
     22 H          -7.3823    0.0566   -0.0003 H       1  LIG1        0.0836
     23 O          -5.2095    4.9322   -0.0004 O.3     1  LIG1       -0.4929
     24 C          -3.7804    4.8809   -0.0005 C.3     1  LIG1        0.0789
     25 H          -3.3877    5.8763   -0.0007 H       1  LIG1        0.0660
     26 H          -3.4420    4.3642    0.8733 H       1  LIG1        0.0660
     27 H          -3.4421    4.3639   -0.8740 H       1  LIG1        0.0660
     28 C          -9.2948    4.2833   -0.0001 C.ar    1  LIG1        0.0371
     29 C          -7.9061    4.5092   -0.0003 C.ar    1  LIG1        0.0255
     30 C          -7.4450    5.8270   -0.0001 C.ar    1  LIG1       -0.0077
     31 C          -8.3780    6.8653    0.0002 C.ar    1  LIG1        0.1387
     32 C          -9.7465    6.5385    0.0002 C.ar    1  LIG1        0.0692
     33 N         -10.2087    5.2730    0.0002 N.ar    1  LIG1       -0.2590
     34 H          -6.3672    6.0425   -0.0012 H       1  LIG1        0.0662
     35 H         -10.6531    7.4701    0.0005 H       1  LIG1        0.0867
     36 H          -9.7724    3.0742   -0.0002 H       1  LIG1        0.0836
     37 O          -7.9993    8.1090    0.0002 O.3     1  LIG1       -0.4936
     38 C          -6.5708    8.1730    0.0001 C.3     1  LIG1        0.0789
     39 H          -6.2596    9.1967   -0.0000 H       1  LIG1        0.0660
     40 H          -6.1918    7.6852    0.8739 H       1  LIG1        0.0660
     41 H          -6.1919    7.6849   -0.8734 H       1  LIG1        0.0660
@<TRIPOS>BOND
     1    27    24    1
     2    14    11    1
     3    41    38    1
     4    21    17    1
     5    34    30    1
     6     7     3    1
     7    12    11    1
     8    25    24    1
     9    24    23    1
    10    24    26    1
    11    11    10    1
    12    11    13    1
    13    16     5    1
    14    16    15   ar
    15    16    17   ar
    16    19    20   ar
    17    19    29    1
    18    19    18   ar
    19    23    18    1
    20     5     4   ar
    21     5     6   ar
    22    10     4    1
    23    15    22    1
    24    15    20   ar
    25    17    18   ar
    26    29    28   ar
    27    29    30   ar
    28    36    28    1
    29     4     3   ar
    30     6     1   ar
    31    28    33   ar
    32    30    31   ar
    33    39    38    1
    34     3     2   ar
    35     1     2   ar
    36     1     9    1
    37     2     8    1
    38    38    37    1
    39    38    40    1
    40    33    32   ar
    41    32    31   ar
    42    32    35    1
    43    31    37    1
