@<TRIPOS>MOLECULE
mol_data/noopt/geoms/mol2/6al6al.out
 28 29 0 0 0
SMALL
GASTEIGER

@<TRIPOS>ATOM
      1 C          -4.5775   -2.0270    0.0001 C.ar    1  LIG1        0.0285
      2 C          -3.1706   -2.0270    0.0001 C.ar    1  LIG1       -0.0401
      3 C          -2.5039   -0.8004    0.0001 C.ar    1  LIG1       -0.0164
      4 C          -3.2580    0.3743   -0.0001 C.ar    1  LIG1        0.1460
      5 C          -4.6612    0.2715   -0.0003 C.ar    1  LIG1        0.1140
      6 N          -5.3207   -0.9034   -0.0001 N.ar    1  LIG1       -0.2513
      7 H          -1.4054   -0.7607   -0.0009 H       1  LIG1        0.0655
      8 H          -2.5135   -3.1487    0.0004 H       1  LIG1        0.0634
      9 H          -5.2431   -3.1437    0.0002 H       1  LIG1        0.0830
     10 O          -2.6846    1.5410   -0.0003 O.3     1  LIG1       -0.4930
     11 C          -1.2643    1.3748   -0.0004 C.3     1  LIG1        0.0789
     12 H          -0.7927    2.3353   -0.0008 H       1  LIG1        0.0660
     13 H          -0.9685    0.8326    0.8734 H       1  LIG1        0.0660
     14 H          -0.9687    0.8321   -0.8739 H       1  LIG1        0.0660
     15 C          -6.8088    1.2233   -0.0003 C.ar    1  LIG1        0.0371
     16 C          -5.4065    1.3366   -0.0004 C.ar    1  LIG1        0.0255
     17 C          -4.8408    2.6129   -0.0003 C.ar    1  LIG1       -0.0077
     18 C          -5.6871    3.7231   -0.0003 C.ar    1  LIG1        0.1387
     19 C          -7.0774    3.5076   -0.0004 C.ar    1  LIG1        0.0692
     20 N          -7.6401    2.2834   -0.0003 N.ar    1  LIG1       -0.2590
     21 H          -3.7491    2.7410   -0.0014 H       1  LIG1        0.0662
     22 H          -7.9061    4.5092   -0.0003 H       1  LIG1        0.0867
     23 H          -7.3823    0.0566   -0.0003 H       1  LIG1        0.0836
     24 O          -5.2095    4.9322   -0.0004 O.3     1  LIG1       -0.4936
     25 C          -3.7804    4.8809   -0.0005 C.3     1  LIG1        0.0789
     26 H          -3.3877    5.8763   -0.0007 H       1  LIG1        0.0660
     27 H          -3.4420    4.3642    0.8733 H       1  LIG1        0.0660
     28 H          -3.4421    4.3639   -0.8740 H       1  LIG1        0.0660
@<TRIPOS>BOND
     1    28    25    1
     2    14    11    1
     3    21    17    1
     4     7     3    1
     5    12    11    1
     6    26    25    1
     7    25    24    1
     8    25    27    1
     9    11    10    1
    10    11    13    1
    11    16     5    1
    12    16    15   ar
    13    16    17   ar
    14    19    20   ar
    15    19    22    1
    16    19    18   ar
    17    24    18    1
    18     5     6   ar
    19     5     4   ar
    20    10     4    1
    21    15    23    1
    22    15    20   ar
    23    17    18   ar
    24     6     1   ar
    25     4     3   ar
    26     1     2   ar
    27     1     9    1
    28     3     2   ar
    29     2     8    1
