@<TRIPOS>MOLECULE
mol_data/noopt/geoms/mol2/6da12dh-12dh-6af4fi-4he-4fe12ae.out
 92 99 0 0 0
SMALL
GASTEIGER

@<TRIPOS>ATOM
      1 C          -4.5775   -2.0270    0.0001 C.ar    1  LIG1        0.1408
      2 C          -3.1706   -2.0270    0.0001 C.ar    1  LIG1       -0.0257
      3 C          -2.5039   -0.8004    0.0001 C.ar    1  LIG1       -0.0570
      4 C          -3.2580    0.3743   -0.0001 C.ar    1  LIG1       -0.0325
      5 C          -4.6612    0.2715   -0.0003 C.ar    1  LIG1        0.1088
      6 N          -5.3207   -0.9034   -0.0001 N.ar    1  LIG1       -0.2332
      7 H          -1.4054   -0.7607   -0.0009 H       1  LIG1        0.0619
      8 H          -2.5135   -3.1487    0.0004 H       1  LIG1        0.0646
      9 N          -5.8301   -4.1286    0.0003 N.1     1  LIG1       -0.1893
     10 C          -5.2431   -3.1437    0.0002 C.1     1  LIG1        0.1191
     11 H          -2.6846    1.5410   -0.0003 H       1  LIG1        0.0640
     12 C          -5.4065    1.3366   -0.0004 C.ar    1  LIG1        0.1731
     13 C          -5.1777    2.6969    0.0143 C.ar    1  LIG1        0.1203
     14 C          -6.4770    3.3362    0.0035 C.ar    1  LIG1        0.0924
     15 C          -7.4140    2.3237   -0.0171 C.ar    1  LIG1        0.1938
     16 O          -6.7784    1.0815   -0.0201 O.2     1  LIG1       -0.4469
     17 N          -3.0215    3.8525    0.0517 N.1     1  LIG1       -0.1907
     18 C          -4.0320    3.3109    0.0342 C.1     1  LIG1        0.1049
     19 N          -6.6906    4.6186    0.0120 N.pl3   1  LIG1       -0.3539
     20 H          -5.9404    5.0845   -0.4572 H       1  LIG1        0.1425
     21 H          -7.5512    4.8163   -0.4572 H       1  LIG1        0.1425
     22 C          -8.7125    2.2634   -0.0340 C.ar    1  LIG1        0.1916
     23 C          -9.7395    3.1843   -0.0467 C.ar    1  LIG1        0.1218
     24 C         -10.9744    2.4282   -0.0632 C.ar    1  LIG1        0.0894
     25 C         -10.6199    1.0948   -0.0595 C.ar    1  LIG1        0.1592
     26 O          -9.2305    0.9676   -0.0417 O.2     1  LIG1       -0.4484
     27 N          -9.5629    5.6245   -0.0428 N.1     1  LIG1       -0.1907
     28 C          -9.6457    4.4809   -0.0446 C.1     1  LIG1        0.1050
     29 N         -12.1721    2.9336   -0.0784 N.pl3   1  LIG1       -0.3540
     30 H         -12.1566    3.8133   -0.5537 H       1  LIG1        0.1425
     31 H         -12.7915    2.3088   -0.5537 H       1  LIG1        0.1425
     32 C         -10.5605   -1.2535   -0.0733 C.ar    1  LIG1        0.0392
     33 C         -11.2633   -0.0347   -0.0685 C.ar    1  LIG1        0.0407
     34 C         -12.6589   -0.0699   -0.0733 C.ar    1  LIG1       -0.0059
     35 C         -13.2998   -1.3100   -0.0829 C.ar    1  LIG1        0.1435
     36 C         -12.5098   -2.4742   -0.0872 C.ar    1  LIG1        0.1157
     37 N         -11.1625   -2.4586   -0.0825 N.ar    1  LIG1       -0.2505
     38 H         -13.2421    0.8619   -0.0708 H       1  LIG1        0.0662
     39 H          -9.2606   -1.2723   -0.0690 H       1  LIG1        0.0837
     40 O         -14.5970   -1.3961   -0.0879 O.3     1  LIG1       -0.5046
     41 H         -14.8568   -2.3203   -0.0891 H       1  LIG1        0.2922
     42 C         -14.4649   -3.7709   -0.0787 C.ar    1  LIG1        0.1267
     43 C         -15.0120   -5.0685   -0.0876 C.ar    1  LIG1       -0.0115
     44 C         -13.0601   -3.6519   -0.0960 C.ar    1  LIG1        0.0456
     45 C         -14.1985   -6.1990   -0.1133 C.ar    1  LIG1       -0.0097
     46 H         -16.0936   -5.1832   -0.0743 H       1  LIG1        0.0660
     47 C         -12.2474   -4.7801   -0.1217 C.ar    1  LIG1       -0.0454
     48 C         -12.8100   -6.0607   -0.1306 C.ar    1  LIG1       -0.0418
     49 H         -11.1669   -4.6621   -0.1346 H       1  LIG1        0.0628
     50 O         -15.2752   -2.7546   -0.0548 O.3     1  LIG1       -0.5061
     51 H         -16.1825   -3.0683   -0.0489 H       1  LIG1        0.2922
     52 C         -12.0451   -7.1120   -0.1544 C.3     1  LIG1       -0.0391
     53 H         -11.1234   -6.8939    0.3434 H       1  LIG1        0.0278
     54 H         -11.8461   -7.3854   -1.1696 H       1  LIG1        0.0278
     55 H         -12.5364   -7.9218    0.3433 H       1  LIG1        0.0278
     56 C         -16.1409   -7.5147   -0.1031 C.ar    1  LIG1        0.0330
     57 C         -16.6754   -8.8176   -0.1108 C.ar    1  LIG1       -0.0315
     58 C         -14.7373   -7.3820   -0.1210 C.ar    1  LIG1        0.0043
     59 C         -15.8509   -9.9401   -0.1359 C.ar    1  LIG1        0.0028
     60 H         -17.7558   -8.9427   -0.0971 H       1  LIG1        0.0643
     61 C         -13.9137   -8.5023   -0.1461 C.ar    1  LIG1       -0.0363
     62 C         -14.4639   -9.7883   -0.1538 C.ar    1  LIG1        0.0332
     63 H         -12.8344   -8.3738   -0.1594 H       1  LIG1        0.0637
     64 N         -16.9610   -6.5063   -0.0796 N.pl3   1  LIG1       -0.3575
     65 H         -16.5432   -5.7260   -0.5450 H       1  LIG1        0.1423
     66 H         -17.8100   -6.7563   -0.5450 H       1  LIG1        0.1423
     67 C         -13.6890  -10.8319   -0.1771 C.1     1  LIG1       -0.0690
     68 C         -12.9730  -11.7962   -0.1986 C.1     1  LIG1       -0.1139
     69 H         -12.3353  -12.6551   -0.2178 H       1  LIG1        0.1232
     70 C         -17.7805  -11.2744   -0.1454 C.ar    1  LIG1        0.1253
     71 C         -18.3024  -12.5824   -0.1510 C.ar    1  LIG1       -0.0077
     72 C         -16.3782  -11.1283   -0.1425 C.ar    1  LIG1        0.0260
     73 C         -17.4669  -13.6971   -0.1543 C.ar    1  LIG1        0.0361
     74 H         -19.3817  -12.7179   -0.1531 H       1  LIG1        0.0662
     75 C         -15.5437  -12.2408   -0.1459 C.ar    1  LIG1       -0.0344
     76 C         -16.0813  -13.5321   -0.1519 C.ar    1  LIG1        0.0361
     77 H         -14.4656  -12.1019   -0.1435 H       1  LIG1        0.0637
     78 O         -18.6105  -10.2738   -0.1427 O.3     1  LIG1       -0.5061
     79 H         -19.5116  -10.6050   -0.1421 H       1  LIG1        0.2922
     80 C         -15.2962  -14.5682   -0.1548 C.1     1  LIG1       -0.0689
     81 C         -14.5708  -15.5257   -0.1575 C.1     1  LIG1       -0.1139
     82 H         -13.9246  -16.3785   -0.1599 H       1  LIG1        0.1232
     83 C         -17.9827  -14.8904   -0.1597 C.ar    1  LIG1        0.1373
     84 C         -19.2610  -15.4091   -0.1637 C.ar    1  LIG1       -0.0004
     85 C         -19.1236  -16.8507   -0.1689 C.ar    1  LIG1        0.0629
     86 C         -17.7699  -17.1173   -0.1678 C.ar    1  LIG1        0.1079
     87 O         -17.0457  -15.9246   -0.1622 O.2     1  LIG1       -0.4616
     88 H         -17.0373  -18.1912   -0.1706 H       1  LIG1        0.1042
     89 H         -20.3849  -14.7557   -0.1630 H       1  LIG1        0.0668
     90 C         -20.1033  -17.7051   -0.1737 C.1     1  LIG1       -0.0665
     91 C         -21.0086  -18.4946   -0.1781 C.1     1  LIG1       -0.1138
     92 H         -21.8150  -19.1979   -0.1821 H       1  LIG1        0.1232
@<TRIPOS>BOND
     1    54    52    1
     2    31    29    1
     3    30    29    1
     4    66    64    1
     5    65    64    1
     6    21    19    1
     7    20    19    1
     8    69    68    1
     9    68    67    3
    10    92    91    1
    11    91    90    3
    12    67    62    1
    13    90    85    1
    14    88    86    1
    15    85    86   ar
    16    85    84   ar
    17    86    87   ar
    18    84    89    1
    19    84    83   ar
    20    87    83   ar
    21    82    81    1
    22    83    73    1
    23    63    61    1
    24    81    80    3
    25    80    76    1
    26    52    48    1
    27    52    55    1
    28    52    53    1
    29    73    76   ar
    30    73    71   ar
    31    62    61   ar
    32    62    59   ar
    33    74    71    1
    34    76    75   ar
    35    71    70   ar
    36    61    58   ar
    37    75    77    1
    38    75    72   ar
    39    70    78    1
    40    70    72   ar
    41    78    79    1
    42    72    59    1
    43    59    57   ar
    44    49    47    1
    45    48    47   ar
    46    48    45   ar
    47    47    44   ar
    48    58    45    1
    49    58    56   ar
    50    45    43   ar
    51    57    56   ar
    52    57    60    1
    53    56    64    1
    54    44    36    1
    55    44    42   ar
    56    41    40    1
    57    40    35    1
    58    43    42   ar
    59    43    46    1
    60    36    35   ar
    61    36    37   ar
    62    35    34   ar
    63    37    32   ar
    64    42    50    1
    65    29    24    1
    66    34    38    1
    67    34    33   ar
    68    32    39    1
    69    32    33   ar
    70    33    25    1
    71    24    25   ar
    72    24    23   ar
    73    25    26   ar
    74    50    51    1
    75    23    28    1
    76    23    22   ar
    77    28    27    3
    78    26    22   ar
    79    22    15    1
    80    16    15   ar
    81    16    12   ar
    82    15    14   ar
    83     7     3    1
    84    12     5    1
    85    12    13   ar
    86     5     4   ar
    87     5     6   ar
    88    11     4    1
    89     4     3   ar
    90     6     1   ar
    91     3     2   ar
    92     1     2   ar
    93     1    10    1
    94     2     8    1
    95    10     9    3
    96    14    19    1
    97    14    13   ar
    98    13    18    1
    99    18    17    3
