@<TRIPOS>MOLECULE
mol_data/noopt/geoms/mol2/6da13df(50)12ai(270)4he(140).out
 46 49 0 0 0
SMALL
GASTEIGER

@<TRIPOS>ATOM
      1 C          -4.5775   -2.0270    0.0001 C.ar    1  LIG1        0.1408
      2 C          -3.1706   -2.0270    0.0001 C.ar    1  LIG1       -0.0257
      3 C          -2.5039   -0.8004    0.0001 C.ar    1  LIG1       -0.0570
      4 C          -3.2580    0.3743   -0.0001 C.ar    1  LIG1       -0.0341
      5 C          -4.6612    0.2715   -0.0003 C.ar    1  LIG1        0.0899
      6 N          -5.3207   -0.9034   -0.0001 N.ar    1  LIG1       -0.2348
      7 H          -1.4054   -0.7607   -0.0009 H       1  LIG1        0.0619
      8 H          -2.5135   -3.1487    0.0004 H       1  LIG1        0.0646
      9 N          -5.8301   -4.1286    0.0003 N.1     1  LIG1       -0.1893
     10 C          -5.2431   -3.1437    0.0002 C.1     1  LIG1        0.1191
     11 H          -2.6846    1.5410   -0.0003 H       1  LIG1        0.0639
     12 C          -5.4065    1.3366   -0.0004 C.ar    1  LIG1        0.0867
     13 C          -5.3408    2.4591    0.7635 C.ar    1  LIG1        0.1205
     14 C          -6.4068    3.3211    0.3497 C.ar    1  LIG1        0.1632
     15 C          -7.0760    2.6882   -0.6501 C.ar    1  LIG1        0.1258
     16 N          -6.4672    1.4727   -0.8673 N.ar    1  LIG1       -0.3466
     17 H          -6.7484    0.8004   -1.5433 H       1  LIG1        0.1662
     18 N          -3.7020    2.9147    2.5221 N.1     1  LIG1       -0.1907
     19 C          -4.4700    2.7012    1.6980 C.1     1  LIG1        0.1050
     20 O          -6.6859    4.4935    0.8374 O.3     1  LIG1       -0.5034
     21 H          -7.6351    4.5728    0.9576 H       1  LIG1        0.2923
     22 C          -8.1103    3.0637   -1.3424 C.ar    1  LIG1        0.1557
     23 C          -8.4084    3.1719   -2.6850 C.ar    1  LIG1       -0.0107
     24 C          -9.7672    3.6651   -2.7697 C.ar    1  LIG1       -0.0040
     25 C         -10.2096    3.8255   -1.4727 C.ar    1  LIG1        0.1404
     26 O          -9.2058    3.4611   -0.5746 O.2     1  LIG1       -0.4529
     27 H          -7.6398    2.8930   -3.6957 H       1  LIG1        0.0659
     28 C         -10.4202    3.9021   -3.8689 C.3     1  LIG1       -0.0361
     29 H         -11.2982    3.2914   -3.9010 H       1  LIG1        0.0279
     30 H          -9.7977    3.6761   -4.7094 H       1  LIG1        0.0279
     31 H         -10.7020    4.9338   -3.9010 H       1  LIG1        0.0279
     32 C         -11.9104    3.4461    0.0980 C.ar    1  LIG1        0.0354
     33 C         -13.1051    3.9225    0.6716 C.ar    1  LIG1       -0.0392
     34 C         -11.3125    4.2259   -0.9131 C.ar    1  LIG1        0.0393
     35 C         -13.6805    5.1221    0.2588 C.ar    1  LIG1       -0.0446
     36 H         -13.5833    3.3363    1.4533 H       1  LIG1        0.0636
     37 C         -11.8865    5.4236   -1.3256 C.ar    1  LIG1       -0.0339
     38 C         -13.0734    5.8801   -0.7432 C.ar    1  LIG1        0.0255
     39 H         -11.4062    6.0068   -2.1072 H       1  LIG1        0.0637
     40 H         -14.7841    5.5321    0.8102 H       1  LIG1        0.0630
     41 N         -11.4215    2.3198    0.5251 N.pl3   1  LIG1       -0.3574
     42 H         -11.9834    1.5639    0.1893 H       1  LIG1        0.1423
     43 H         -10.4855    2.2141    0.1893 H       1  LIG1        0.1423
     44 C         -13.6055    7.0004   -1.1330 C.1     1  LIG1       -0.0696
     45 C         -14.0971    8.0355   -1.4932 C.1     1  LIG1       -0.1139
     46 H         -14.5350    8.9576   -1.8140 H       1  LIG1        0.1232
@<TRIPOS>BOND
     1    30    28    1
     2    29    28    1
     3    31    28    1
     4    28    24    1
     5    27    23    1
     6    24    23   ar
     7    24    25   ar
     8    23    22   ar
     9    39    37    1
    10    46    45    1
    11    17    16    1
    12    45    44    3
    13    25    34    1
    14    25    26   ar
    15    22    15    1
    16    22    26   ar
    17    37    34   ar
    18    37    38   ar
    19    44    38    1
    20    34    32   ar
    21    16    15   ar
    22    16    12   ar
    23    38    35   ar
    24    15    14   ar
    25     7     3    1
    26    12     5    1
    27    12    13   ar
    28     5     4   ar
    29     5     6   ar
    30    11     4    1
    31     4     3   ar
    32     6     1   ar
    33     3     2   ar
    34     2     1   ar
    35     2     8    1
    36     1    10    1
    37    10     9    3
    38    32    41    1
    39    32    33   ar
    40    43    41    1
    41    42    41    1
    42    35    33   ar
    43    35    40    1
    44    14    13   ar
    45    14    20    1
    46    33    36    1
    47    13    19    1
    48    20    21    1
    49    19    18    3
