@<TRIPOS>MOLECULE
mol_data/noopt/geoms/mol2/6da4el(340)6di(350)6la(20).out
 54 56 0 0 0
SMALL
GASTEIGER

@<TRIPOS>ATOM
      1 C          -4.5775   -2.0270    0.0001 C.ar    1  LIG1        0.1407
      2 C          -3.1706   -2.0270    0.0001 C.ar    1  LIG1       -0.0257
      3 C          -2.5039   -0.8004    0.0001 C.ar    1  LIG1       -0.0570
      4 C          -3.2580    0.3743   -0.0001 C.ar    1  LIG1       -0.0356
      5 C          -4.6612    0.2715   -0.0003 C.ar    1  LIG1        0.0737
      6 N          -5.3207   -0.9034   -0.0001 N.ar    1  LIG1       -0.2363
      7 H          -1.4054   -0.7607   -0.0009 H       1  LIG1        0.0619
      8 H          -2.5135   -3.1487    0.0004 H       1  LIG1        0.0646
      9 N          -5.8301   -4.1286    0.0003 N.1     1  LIG1       -0.1893
     10 C          -5.2431   -3.1437    0.0002 C.1     1  LIG1        0.1191
     11 H          -2.6846    1.5410   -0.0003 H       1  LIG1        0.0639
     12 C          -4.8678    2.5708   -0.4178 C.ar    1  LIG1        0.0346
     13 C          -5.7155    3.6953   -0.3982 C.ar    1  LIG1       -0.0342
     14 C          -5.4065    1.3366   -0.0004 C.ar    1  LIG1        0.0194
     15 C          -7.0414    3.5973    0.0177 C.ar    1  LIG1        0.0321
     16 H          -5.3201    4.6574   -0.7160 H       1  LIG1        0.0637
     17 C          -6.7301    1.2383    0.4149 C.ar    1  LIG1       -0.0040
     18 C          -7.5565    2.3667    0.4269 C.ar    1  LIG1        0.1874
     19 H          -7.1221    0.2753    0.7322 H       1  LIG1        0.0663
     20 C          -3.6400    2.7247   -0.8164 C.1     1  LIG1       -0.0690
     21 C          -2.5055    2.8669   -1.1846 C.1     1  LIG1       -0.1139
     22 H          -1.4949    2.9936   -1.5126 H       1  LIG1        0.1232
     23 O          -8.7930    2.2688    0.8163 O.3     1  LIG1       -0.2872
     24 C          -9.3534    3.5766    0.9592 C.3     1  LIG1       -0.0167
     25 H         -10.3711    3.4955    1.2796 H       1  LIG1        0.0459
     26 H          -8.7935    4.1271    1.6861 H       1  LIG1        0.0320
     27 H          -9.3150    4.0858    0.0190 H       1  LIG1        0.0459
     28 C          -9.1818    4.5402    0.2369 C.ar    1  LIG1        0.0982
     29 C          -7.7960    4.6559    0.0232 C.ar    1  LIG1        0.0136
     30 C          -7.2568    5.9273   -0.1810 C.ar    1  LIG1       -0.0469
     31 C          -8.1120    7.0304   -0.1652 C.ar    1  LIG1       -0.0237
     32 C          -9.4843    6.8131    0.0564 C.ar    1  LIG1        0.0797
     33 N         -10.0214    5.5936    0.2554 N.ar    1  LIG1       -0.2441
     34 H          -6.1787    6.0569   -0.3522 H       1  LIG1        0.0628
     35 N         -10.2144    2.3528    0.6037 N.3     1  LIG1       -0.1432
     36 C          -9.7305    3.3779    0.4318 C.3     1  LIG1        0.0359
     37 C          -7.6588    8.2351   -0.3504 C.3     1  LIG1       -0.0377
     38 H          -8.3269    8.9404    0.0980 H       1  LIG1        0.0278
     39 H          -7.5851    8.4310   -1.3998 H       1  LIG1        0.0278
     40 H          -6.6915    8.3250    0.0980 H       1  LIG1        0.0278
     41 C         -11.6561    7.6246   -0.3214 C.ar    1  LIG1        0.2239
     42 C         -10.3204    7.8083    0.0802 C.ar    1  LIG1        0.0621
     43 C          -9.9195    9.0773    0.5019 C.ar    1  LIG1       -0.0460
     44 C         -10.8577   10.1109    0.5081 C.ar    1  LIG1       -0.0427
     45 C         -12.1705    9.8287    0.0880 C.ar    1  LIG1        0.0314
     46 N         -12.5744    8.6104   -0.3218 N.ar    1  LIG1       -0.2208
     47 H          -8.8838    9.2592    0.8221 H       1  LIG1        0.0626
     48 H         -13.0796   10.7578    0.0761 H       1  LIG1        0.0831
     49 O         -12.0768    6.4616   -0.7220 O.3     1  LIG1       -0.4792
     50 C         -13.4989    6.4931   -0.8692 C.3     1  LIG1        0.0804
     51 H         -13.8447    5.5358   -1.1991 H       1  LIG1        0.0660
     52 H         -13.9497    6.7303    0.0718 H       1  LIG1        0.0660
     53 H         -13.7664    7.2369   -1.5903 H       1  LIG1        0.0660
     54 H         -10.5340   11.3101    0.8918 H       1  LIG1        0.0633
@<TRIPOS>BOND
     1    53    50    1
     2    22    21    1
     3    39    37    1
     4    51    50    1
     5    21    20    3
     6    50    49    1
     7    50    52    1
     8    20    12    1
     9    49    41    1
    10    16    13    1
    11    12    13   ar
    12    12    14   ar
    13    13    15   ar
    14    34    30    1
    15    37    31    1
    16    37    40    1
    17    37    38    1
    18    46    41   ar
    19    46    45   ar
    20    41    42   ar
    21    30    31   ar
    22    30    29   ar
    23    31    32   ar
    24     7     3    1
    25    14     5    1
    26    14    17   ar
    27     5     6   ar
    28     5     4   ar
    29    11     4    1
    30     6     1   ar
    31     4     3   ar
    32     3     2   ar
    33     1     2   ar
    34     1    10    1
    35     2     8    1
    36    10     9    3
    37    15    29    1
    38    15    18   ar
    39    27    36    1
    40    29    28   ar
    41    32    42    1
    42    32    33   ar
    43    48    45    1
    44    42    43   ar
    45    45    44   ar
    46    28    33   ar
    47    17    18   ar
    48    17    19    1
    49    18    23    1
    50    36    35    1
    51    36    24    1
    52    36    25    1
    53    43    44   ar
    54    43    47    1
    55    44    54    1
    56    24    26    1
