@<TRIPOS>MOLECULE
mol_data/noopt/geoms/mol2/6da6da6da.out
 32 34 0 0 0
SMALL
GASTEIGER

@<TRIPOS>ATOM
      1 C          -4.5775   -2.0270    0.0001 C.ar    1  LIG1        0.1407
      2 C          -3.1706   -2.0270    0.0001 C.ar    1  LIG1       -0.0257
      3 C          -2.5039   -0.8004    0.0001 C.ar    1  LIG1       -0.0570
      4 C          -3.2580    0.3743   -0.0001 C.ar    1  LIG1       -0.0355
      5 C          -4.6612    0.2715   -0.0003 C.ar    1  LIG1        0.0752
      6 N          -5.3207   -0.9034   -0.0001 N.ar    1  LIG1       -0.2363
      7 H          -1.4054   -0.7607   -0.0009 H       1  LIG1        0.0619
      8 H          -2.5135   -3.1487    0.0004 H       1  LIG1        0.0646
      9 N          -5.8301   -4.1286    0.0003 N.1     1  LIG1       -0.1893
     10 C          -5.2431   -3.1437    0.0002 C.1     1  LIG1        0.1191
     11 H          -2.6846    1.5410   -0.0003 H       1  LIG1        0.0639
     12 C          -6.8088    1.2233   -0.0003 C.ar    1  LIG1        0.1498
     13 C          -5.4065    1.3366   -0.0004 C.ar    1  LIG1        0.0363
     14 C          -4.8408    2.6129   -0.0003 C.ar    1  LIG1       -0.0478
     15 C          -5.6871    3.7231   -0.0003 C.ar    1  LIG1       -0.0349
     16 C          -7.0774    3.5076   -0.0004 C.ar    1  LIG1        0.0752
     17 N          -7.6401    2.2834   -0.0003 N.ar    1  LIG1       -0.2356
     18 H          -3.7491    2.7410   -0.0014 H       1  LIG1        0.0626
     19 N          -7.8881   -0.9724   -0.0003 N.1     1  LIG1       -0.1893
     20 C          -7.3823    0.0566   -0.0003 C.1     1  LIG1        0.1198
     21 H          -5.2095    4.9322   -0.0004 H       1  LIG1        0.0639
     22 C          -9.2948    4.2833   -0.0001 C.ar    1  LIG1        0.1491
     23 C          -7.9061    4.5092   -0.0003 C.ar    1  LIG1        0.0362
     24 C          -7.4450    5.8270   -0.0001 C.ar    1  LIG1       -0.0484
     25 C          -8.3780    6.8653    0.0002 C.ar    1  LIG1       -0.0429
     26 C          -9.7465    6.5385    0.0002 C.ar    1  LIG1        0.0291
     27 N         -10.2087    5.2730    0.0002 N.ar    1  LIG1       -0.2440
     28 H          -6.3672    6.0425   -0.0012 H       1  LIG1        0.0625
     29 H         -10.6531    7.4701    0.0005 H       1  LIG1        0.0830
     30 N         -10.1937    2.0078   -0.0002 N.1     1  LIG1       -0.1893
     31 C          -9.7724    3.0742   -0.0002 C.1     1  LIG1        0.1198
     32 H          -7.9994    8.1090    0.0002 H       1  LIG1        0.0633
@<TRIPOS>BOND
     1    18    14    1
     2    28    24    1
     3     7     3    1
     4    13     5    1
     5    13    12   ar
     6    13    14   ar
     7    16    17   ar
     8    16    23    1
     9    16    15   ar
    10    21    15    1
    11     5     6   ar
    12     5     4   ar
    13    11     4    1
    14    12    20    1
    15    12    17   ar
    16    14    15   ar
    17    20    19    3
    18    23    22   ar
    19    23    24   ar
    20    30    31    3
    21    31    22    1
    22     6     1   ar
    23     4     3   ar
    24    22    27   ar
    25    24    25   ar
    26     1     2   ar
    27     1    10    1
    28     3     2   ar
    29     2     8    1
    30    27    26   ar
    31    26    25   ar
    32    26    29    1
    33    25    32    1
    34    10     9    3
