@<TRIPOS>MOLECULE
mol_data/noopt/geoms/mol2/6da6da.out
 22 23 0 0 0
SMALL
GASTEIGER

@<TRIPOS>ATOM
      1 C          -4.5775   -2.0270    0.0001 C.ar    1  LIG1        0.1407
      2 C          -3.1706   -2.0270    0.0001 C.ar    1  LIG1       -0.0257
      3 C          -2.5039   -0.8004    0.0001 C.ar    1  LIG1       -0.0570
      4 C          -3.2580    0.3743   -0.0001 C.ar    1  LIG1       -0.0355
      5 C          -4.6612    0.2715   -0.0003 C.ar    1  LIG1        0.0752
      6 N          -5.3207   -0.9034   -0.0001 N.ar    1  LIG1       -0.2363
      7 H          -1.4054   -0.7607   -0.0009 H       1  LIG1        0.0619
      8 H          -2.5135   -3.1487    0.0004 H       1  LIG1        0.0646
      9 N          -5.8301   -4.1286    0.0003 N.1     1  LIG1       -0.1893
     10 C          -5.2431   -3.1437    0.0002 C.1     1  LIG1        0.1191
     11 H          -2.6846    1.5410   -0.0003 H       1  LIG1        0.0639
     12 C          -6.8088    1.2233   -0.0003 C.ar    1  LIG1        0.1491
     13 C          -5.4065    1.3366   -0.0004 C.ar    1  LIG1        0.0362
     14 C          -4.8408    2.6129   -0.0003 C.ar    1  LIG1       -0.0484
     15 C          -5.6871    3.7231   -0.0003 C.ar    1  LIG1       -0.0429
     16 C          -7.0774    3.5076   -0.0004 C.ar    1  LIG1        0.0291
     17 N          -7.6401    2.2834   -0.0003 N.ar    1  LIG1       -0.2440
     18 H          -3.7491    2.7410   -0.0014 H       1  LIG1        0.0625
     19 H          -7.9061    4.5092   -0.0003 H       1  LIG1        0.0830
     20 N          -7.8881   -0.9724   -0.0003 N.1     1  LIG1       -0.1893
     21 C          -7.3823    0.0566   -0.0003 C.1     1  LIG1        0.1198
     22 H          -5.2095    4.9322   -0.0004 H       1  LIG1        0.0633
@<TRIPOS>BOND
     1    18    14    1
     2     7     3    1
     3    13     5    1
     4    13    12   ar
     5    13    14   ar
     6    16    17   ar
     7    16    19    1
     8    16    15   ar
     9    22    15    1
    10     5     6   ar
    11     5     4   ar
    12    11     4    1
    13    12    21    1
    14    12    17   ar
    15    14    15   ar
    16    21    20    3
    17     6     1   ar
    18     4     3   ar
    19     1     2   ar
    20     1    10    1
    21     3     2   ar
    22     2     8    1
    23    10     9    3
