@<TRIPOS>MOLECULE
mol_data/noopt/geoms/mol2/6da6da-6da.out
 32 34 0 0 0
SMALL
GASTEIGER

@<TRIPOS>ATOM
      1 C          -4.5775   -2.0270    0.0001 C.ar    1  LIG1        0.1407
      2 C          -3.1706   -2.0270    0.0001 C.ar    1  LIG1       -0.0257
      3 C          -2.5039   -0.8004    0.0001 C.ar    1  LIG1       -0.0570
      4 C          -3.2580    0.3743   -0.0001 C.ar    1  LIG1       -0.0355
      5 C          -4.6612    0.2715   -0.0003 C.ar    1  LIG1        0.0752
      6 N          -5.3207   -0.9034   -0.0001 N.ar    1  LIG1       -0.2363
      7 H          -1.4054   -0.7607   -0.0009 H       1  LIG1        0.0619
      8 H          -2.5135   -3.1487    0.0004 H       1  LIG1        0.0646
      9 N          -5.8301   -4.1286    0.0003 N.1     1  LIG1       -0.1893
     10 C          -5.2431   -3.1437    0.0002 C.1     1  LIG1        0.1191
     11 H          -2.6846    1.5410   -0.0003 H       1  LIG1        0.0639
     12 C          -4.8196    2.6153   -0.0003 C.ar    1  LIG1        0.1498
     13 C          -5.4065    1.3366   -0.0004 C.ar    1  LIG1        0.0363
     14 C          -6.7994    1.2424   -0.0003 C.ar    1  LIG1       -0.0478
     15 C          -7.5524    2.4178   -0.0003 C.ar    1  LIG1       -0.0349
     16 C          -6.8736    3.6502   -0.0004 C.ar    1  LIG1        0.0752
     17 N          -5.5307    3.7594   -0.0003 N.ar    1  LIG1       -0.2356
     18 H          -7.2937    0.2606   -0.0014 H       1  LIG1        0.0626
     19 N          -2.3870    2.8770   -0.0002 N.1     1  LIG1       -0.1893
     20 C          -3.5271    2.7543   -0.0003 C.1     1  LIG1        0.1198
     21 H          -8.8520    2.3834   -0.0004 H       1  LIG1        0.0639
     22 C          -8.9376    4.7719   -0.0001 C.ar    1  LIG1        0.1491
     23 C          -7.5307    4.7719   -0.0003 C.ar    1  LIG1        0.0362
     24 C          -6.8640    5.9985   -0.0001 C.ar    1  LIG1       -0.0484
     25 C          -7.6181    7.1732    0.0002 C.ar    1  LIG1       -0.0429
     26 C          -9.0213    7.0704    0.0002 C.ar    1  LIG1        0.0291
     27 N          -9.6808    5.8955    0.0002 N.ar    1  LIG1       -0.2440
     28 H          -5.7655    6.0382   -0.0012 H       1  LIG1        0.0625
     29 H          -9.7666    8.1355    0.0005 H       1  LIG1        0.0830
     30 N         -10.1903    2.6703   -0.0002 N.1     1  LIG1       -0.1893
     31 C          -9.6032    3.6552   -0.0002 C.1     1  LIG1        0.1198
     32 H          -7.0447    8.3399    0.0002 H       1  LIG1        0.0633
@<TRIPOS>BOND
     1    18    14    1
     2    28    24    1
     3     7     3    1
     4    13    14   ar
     5    13     5    1
     6    13    12   ar
     7    21    15    1
     8    16    15   ar
     9    16    23    1
    10    16    17   ar
    11    14    15   ar
    12     5     6   ar
    13     5     4   ar
    14    11     4    1
    15    23    22   ar
    16    23    24   ar
    17    12    17   ar
    18    12    20    1
    19    20    19    3
    20    30    31    3
    21    31    22    1
    22     6     1   ar
    23     4     3   ar
    24    22    27   ar
    25    24    25   ar
    26     1     2   ar
    27     1    10    1
    28     3     2   ar
    29     2     8    1
    30    27    26   ar
    31    26    25   ar
    32    26    29    1
    33    25    32    1
    34    10     9    3
