@<TRIPOS>MOLECULE
mol_data/noopt/geoms/mol2/6dd.out
 13 13 0 0 0
SMALL
GASTEIGER

@<TRIPOS>ATOM
      1 C          -4.5775   -2.0270    0.0001 C.ar    1  LIG1        0.1401
      2 C          -3.1706   -2.0270    0.0001 C.ar    1  LIG1       -0.0246
      3 C          -2.5039   -0.8004    0.0001 C.ar    1  LIG1       -0.0402
      4 C          -3.2580    0.3743   -0.0001 C.ar    1  LIG1        0.0699
      5 C          -4.6612    0.2715   -0.0003 C.ar    1  LIG1        0.0464
      6 N          -5.3207   -0.9034   -0.0001 N.ar    1  LIG1       -0.2434
      7 H          -1.4054   -0.7607   -0.0009 H       1  LIG1        0.0632
      8 H          -2.5135   -3.1487    0.0004 H       1  LIG1        0.0646
      9 H          -5.4065    1.3366   -0.0004 H       1  LIG1        0.0843
     10 N          -5.8301   -4.1286    0.0003 N.1     1  LIG1       -0.1893
     11 C          -5.2431   -3.1437    0.0002 C.1     1  LIG1        0.1191
     12 N          -2.1789    2.5700   -0.0005 N.1     1  LIG1       -0.1908
     13 C          -2.6846    1.5410   -0.0003 C.1     1  LIG1        0.1007
@<TRIPOS>BOND
     1     7     3    1
     2    12    13    3
     3     9     5    1
     4     5     4   ar
     5     5     6   ar
     6    13     4    1
     7     4     3   ar
     8     6     1   ar
     9     1     2   ar
    10     1    11    1
    11     2     3   ar
    12     2     8    1
    13    11    10    3
