@<TRIPOS>MOLECULE
mol_data/noopt/geoms/mol2/6dd12el-4ae13lf-12ef-12il12ld-13fe-.out
 98 102 0 0 0
SMALL
GASTEIGER

@<TRIPOS>ATOM
      1 C          -4.5775   -2.0270    0.0001 C.3     1  LIG1        0.1267
      2 C          -3.1706   -2.0270    0.0001 C.3     1  LIG1       -0.0306
      3 C          -2.5039   -0.8004    0.0001 C.2     1  LIG1       -0.0764
      4 C          -3.2580    0.3743   -0.0001 C.2     1  LIG1        0.0041
      5 C          -4.6612    0.2715   -0.0003 C.2     1  LIG1        0.0947
      6 N          -5.3207   -0.9034   -0.0001 N.2     1  LIG1       -0.2711
      7 H          -1.4054   -0.7607   -0.0009 H       1  LIG1        0.0576
      8 H          -2.5135   -3.1487    0.0004 H       1  LIG1        0.0310
      9 N          -5.8301   -4.1286    0.0003 N.3     1  LIG1       -0.2131
     10 C          -5.2431   -3.1437    0.0002 C.3     1  LIG1        0.0912
     11 N          -2.1789    2.5700   -0.0005 N.pl3   1  LIG1       -0.2336
     12 C          -2.6846    1.5410   -0.0003 C.3     1  LIG1        0.1388
     13 C          -5.4065    1.3366   -0.0004 C.3     1  LIG1        0.2324
     14 C          -5.1777    2.6969    0.0143 C.2     1  LIG1        0.0698
     15 C          -6.4770    3.3362    0.0035 C.3     1  LIG1        0.1983
     16 C          -7.4140    2.3237   -0.0171 C.2     1  LIG1        0.1402
     17 O          -6.7784    1.0815   -0.0201 O.2     1  LIG1       -0.4705
     18 C          -4.0320    3.3109    0.0342 C.1     1  LIG1       -0.0960
     19 C          -2.9734    3.8782    0.0525 C.2     1  LIG1        0.0547
     20 H          -2.0304    4.3836    0.0688 H       1  LIG1        0.0888
     21 O          -6.6906    4.6186    0.0120 O.3     1  LIG1       -0.3602
     22 C          -5.4393    5.3108    0.0151 C.3     1  LIG1        0.0383
     23 H          -5.6155    6.3662    0.0219 H       1  LIG1        0.0524
     24 H          -4.8821    5.0366    0.8865 H       1  LIG1        0.0524
     25 H          -4.8839    5.0476   -0.8608 H       1  LIG1        0.0524
     26 C          -9.4707    3.4520   -0.0423 C.3     1  LIG1       -0.0014
     27 C         -10.8739    3.3333   -0.0591 C.3     2  LIG2        0.0000
     28 C          -8.7124    2.2634   -0.0340 C.2     1  LIG1       -0.0156
     29 C         -11.4967    2.0872   -0.0677 C.2     1  LIG1        0.0242
     30 H         -11.4781    4.2378   -0.0655 H       2  LIG2        0.0194
     31 C          -9.3337    1.0192   -0.0427 C.3     1  LIG1        0.0287
     32 C         -10.7289    0.9220   -0.0597 C.2     1  LIG1        0.0202
     33 H          -8.7270    0.1173   -0.0358 H       1  LIG1        0.0411
     34 H          -8.9475    4.6421   -0.0352 H       1  LIG1        0.0359
     35 C         -11.3041   -0.2438   -0.0675 C.1     1  LIG1       -0.0727
     36 C         -11.8356   -1.3210   -0.0748 C.1     1  LIG1       -0.1142
     37 H         -12.3090   -2.2806   -0.0813 H       1  LIG1        0.1231
     38 C         -12.7946    2.0144   -0.0833 C.ar    1  LIG1        0.0996
     39 C         -13.7330    2.9979   -0.0942 C.ar    1  LIG1        0.2459
     40 C         -15.0169    2.3638   -0.1087 C.ar    1  LIG1        0.1932
     41 C         -14.8065    1.0207   -0.1077 C.ar    1  LIG1        0.1298
     42 N         -13.4473    0.8024   -0.0917 N.ar    1  LIG1       -0.3457
     43 H         -13.0072   -0.0888   -0.0876 H       1  LIG1        0.1662
     44 O         -13.5033    4.2775   -0.0905 O.3     1  LIG1       -0.2817
     45 C         -12.0922    4.5091   -0.0892 C.3     3  LIG3       -0.0776
     46 H         -11.9036    5.5624   -0.0864 H       2  LIG2        0.0194
     47 H         -11.6589    4.0668    0.7835 H       2  LIG2        0.0194
     48 H         -11.6581    4.0714   -0.9638 H       2  LIG2        0.0194
     49 O         -16.1725    2.9591   -0.1209 O.3     1  LIG1       -0.5017
     50 H         -16.8718    2.3014   -0.1239 H       1  LIG1        0.2924
     51 C         -15.6531    0.0343   -0.1179 C.ar    1  LIG1        0.1746
     52 C         -17.0277   -0.0820   -0.1109 C.ar    1  LIG1        0.1141
     53 C         -17.3243   -1.4992   -0.1315 C.ar    1  LIG1        0.1822
     54 C         -16.1106   -2.1553   -0.1499 C.ar    1  LIG1        0.2134
     55 O         -15.0652   -1.2312   -0.1421 O.2     1  LIG1       -0.4450
     56 C         -17.9071    0.8752   -0.0898 C.1     1  LIG1       -0.0621
     57 C         -18.7196    1.7597   -0.0704 C.1     1  LIG1       -0.1137
     58 H         -19.4434    2.5476   -0.0531 H       1  LIG1        0.1232
     59 O         -18.5134   -2.0245   -0.1322 O.3     1  LIG1       -0.5023
     60 H         -18.4408   -2.9818   -0.1323 H       1  LIG1        0.2923
     61 C         -15.7298   -3.3980   -0.1722 C.ar    1  LIG1        0.1811
     62 C         -16.3665   -4.6218   -0.1742 C.ar    1  LIG1        0.0460
     63 C         -15.3274   -5.6299   -0.2066 C.ar    1  LIG1        0.2312
     64 C         -14.1242   -4.9549   -0.2223 C.ar    1  LIG1        0.2210
     65 O         -14.3461   -3.5776   -0.2017 O.2     1  LIG1       -0.4441
     66 C         -17.6458   -4.8534   -0.1518 C.3     1  LIG1       -0.0323
     67 H         -17.8325   -5.7750    0.3587 H       1  LIG1        0.0280
     68 H         -18.0139   -4.9200   -1.1543 H       1  LIG1        0.0280
     69 H         -18.1437   -4.0556    0.3587 H       1  LIG1        0.0280
     70 O         -15.5193   -6.9157   -0.2182 O.3     1  LIG1       -0.2835
     71 C         -16.9230   -7.1887   -0.2225 C.3     4  LIG4       -0.0681
     72 H         -17.0805   -8.2470   -0.2321 H       3  LIG3        0.0227
     73 H         -17.3706   -6.7695    0.6544 H       3  LIG3        0.0227
     74 H         -17.3683   -6.7539   -1.0928 H       3  LIG3        0.0227
     75 C         -12.8704   -5.2973   -0.2510 C.ar    1  LIG1        0.2171
     76 C         -12.1765   -6.4896   -0.2580 C.ar    1  LIG1        0.1870
     77 C         -10.7693   -6.1503   -0.2966 C.ar    1  LIG1        0.1413
     78 C         -10.6966   -4.7726   -0.3109 C.ar    1  LIG1        0.1765
     79 O         -11.9792   -4.2239   -0.2834 O.2     1  LIG1       -0.4448
     80 O         -12.6645   -7.6944   -0.2347 O.3     1  LIG1       -0.4900
     81 C         -14.0930   -7.6306   -0.2263 C.3     1  LIG1        0.0790
     82 H         -14.4942   -8.6224   -0.2073 H       1  LIG1        0.0660
     83 H         -14.4211   -7.0966    0.6410 H       1  LIG1        0.0660
     84 H         -14.4327   -7.1253   -1.1061 H       1  LIG1        0.0660
     85 N          -8.9175   -7.7489   -0.3293 N.1     1  LIG1       -0.1906
     86 C          -9.7853   -6.9997   -0.3140 C.1     1  LIG1        0.1068
     87 C          -9.7372   -3.8959   -0.3430 C.ar    1  LIG1        0.1258
     88 C          -8.3885   -4.0649   -0.3652 C.ar    1  LIG1        0.1502
     89 C          -7.7947   -2.7621   -0.3964 C.ar    1  LIG1        0.0380
     90 C          -8.8067   -1.8544   -0.3938 C.ar    1  LIG1        0.0110
     91 N          -9.9976   -2.5443   -0.3606 N.ar    1  LIG1       -0.3550
     92 H         -10.9020   -2.1319   -0.3516 H       1  LIG1        0.1655
     93 H          -8.7744   -0.5550   -0.4155 H       1  LIG1        0.0811
     94 O          -7.7575   -5.2015   -0.3577 O.3     1  LIG1       -0.5042
     95 H          -6.8108   -5.0424   -0.3558 H       1  LIG1        0.2922
     96 C          -6.5232   -2.4931   -0.4230 C.3     1  LIG1        0.1188
     97 C          -5.3482   -2.2445   -0.4476 C.3     1  LIG1        0.0451
     98 H          -4.3016   -2.0231   -0.4694 H       1  LIG1        0.0310
@<TRIPOS>BOND
     1    68    66    1
     2    84    81    1
     3    74    71    1
     4    48    45    1
     5    25    22    1
     6    98     2    1
     7    97     1    1
     8    97    10    1
     9    96    89    1
    10    96     9    1
    11    93    90    1
    12    89    90   ar
    13    89    88   ar
    14    90    91   ar
    15    88    94    1
    16    88    87   ar
    17    91    92    1
    18    91    87   ar
    19    94    95    1
    20    87    78    1
    21    85    86    3
    22    86    77    1
    23    78    77   ar
    24    78    79   ar
    25    77    76   ar
    26    79    75   ar
    27    76    75   ar
    28    76    80    1
    29    75    64    1
    30    80    81    1
    31    72    71    1
    32    81    82    1
    33    81    83    1
    34    71    73    1
    35    64    63   ar
    36    64    65   ar
    37    70    63    1
    38    63    62   ar
    39    65    61   ar
    40    62    61   ar
    41    62    66    1
    42    61    54    1
    43    66    69    1
    44    66    67    1
    45    54    55   ar
    46    54    53   ar
    47    55    51   ar
    48    60    59    1
    49    59    53    1
    50    53    52   ar
    51    50    49    1
    52    49    40    1
    53    51    52   ar
    54    51    41    1
    55    52    56    1
    56    40    41   ar
    57    40    39   ar
    58    41    42   ar
    59    39    44    1
    60    39    38   ar
    61    42    43    1
    62    42    38   ar
    63    56    57    3
    64    45    46    1
    65    45    30    1
    66    45    47    1
    67    38    29    1
    68    37    36    1
    69    36    35    3
    70    57    58    1
    71    29    32    2
    72    35    32    1
    73    32    31    1
    74    31    33    1
    75    31    28    1
    76    26    34    1
    77    26    28    1
    78    28    16    2
    79    17    16    1
    80    17    13    1
    81    16    15    1
    82     7     3    1
    83    11    12    1
    84    11    19    1
    85    13     5    1
    86    13    14    1
    87     5     4    1
    88     5     6    2
    89    12     4    1
    90     4     3    2
    91     6     1    1
    92     2     3    1
    93     2     8    1
    94    10     9    1
    95    15    21    1
    96    15    14    1
    97    21    22    1
    98    14    18    2
    99    22    23    1
   100    22    24    1
   101    18    19    2
   102    19    20    1
