@<TRIPOS>MOLECULE
mol_data/noopt/geoms/mol2/6dd4ha6he-13hi12ld6ad6ll12fe.out
 100 105 0 0 0
SMALL
GASTEIGER

@<TRIPOS>ATOM
      1 C          -4.5775   -2.0270    0.0001 C.ar    1  LIG1        0.1407
      2 C          -3.1706   -2.0270    0.0001 C.ar    1  LIG1       -0.0255
      3 C          -2.5039   -0.8004    0.0001 C.ar    1  LIG1       -0.0536
      4 C          -3.2580    0.3743   -0.0001 C.ar    1  LIG1       -0.0170
      5 C          -4.6612    0.2715   -0.0003 C.ar    1  LIG1        0.0777
      6 N          -5.3207   -0.9034   -0.0001 N.ar    1  LIG1       -0.2360
      7 H          -1.4054   -0.7607   -0.0009 H       1  LIG1        0.0622
      8 H          -2.5135   -3.1487    0.0004 H       1  LIG1        0.0646
      9 N          -5.8301   -4.1286    0.0003 N.1     1  LIG1       -0.1893
     10 C          -5.2431   -3.1437    0.0002 C.1     1  LIG1        0.1191
     11 N          -2.1789    2.5700   -0.0005 N.3     2  LIG2        0.0000
     12 C          -2.6846    1.5410   -0.0003 C.3     1  LIG1        0.0011
     13 C          -4.8076    2.6130    0.0003 C.ar    1  LIG1        0.0541
     14 C          -5.6584    3.7353    0.0017 C.ar    1  LIG1       -0.0309
     15 C          -5.4065    1.3366   -0.0004 C.ar    1  LIG1        0.0230
     16 C          -7.0444    3.5952    0.0018 C.ar    1  LIG1       -0.0128
     17 H          -5.2172    4.7295    0.0025 H       1  LIG1        0.0643
     18 C          -6.7901    1.1962   -0.0003 C.ar    1  LIG1       -0.0502
     19 C          -7.6184    2.3233    0.0007 C.ar    1  LIG1       -0.0532
     20 H          -7.2278    0.2012   -0.0008 H       1  LIG1        0.0625
     21 N          -3.5222    2.8072    0.0000 N.pl3   1  LIG1       -0.2659
     22 H          -3.0708    2.0496   -0.4715 H       1  LIG1        0.0362
     23 H          -3.3147    3.6643   -0.4715 H       1  LIG1        0.1699
     24 H          -8.9112    2.1860    0.0009 H       1  LIG1        0.0624
     25 C          -9.2010    4.5263   -0.0174 C.ar    1  LIG1        0.1247
     26 C          -7.8000    4.6531    0.0030 C.ar    1  LIG1        0.0229
     27 C          -7.2468    5.9347    0.0247 C.ar    1  LIG1       -0.0332
     28 C          -8.1038    7.0366    0.0251 C.ar    1  LIG1        0.0528
     29 C          -9.4919    6.8077    0.0036 C.ar    1  LIG1        0.1064
     30 N         -10.0426    5.5782   -0.0173 N.ar    1  LIG1       -0.2291
     31 H          -6.1565    6.0732    0.0399 H       1  LIG1        0.0638
     32 N          -9.7631    3.3542   -0.0378 N.pl3   1  LIG1       -0.3426
     33 H         -10.6402    3.4134   -0.5144 H       1  LIG1        0.1437
     34 H          -9.1678    2.7074   -0.5145 H       1  LIG1        0.1437
     35 C          -7.6381    8.2501    0.0446 C.1     1  LIG1       -0.0674
     36 C          -7.2078    9.3715    0.0627 C.1     1  LIG1       -0.1138
     37 H          -6.8245   10.3703    0.0787 H       1  LIG1        0.1232
     38 C         -10.3303    7.8013    0.0031 C.ar    1  LIG1        0.0883
     39 C         -10.1084    9.1425    0.0025 C.ar    1  LIG1        0.0604
     40 C         -11.3869    9.7874    0.0034 C.ar    1  LIG1        0.0358
     41 C         -12.3339    8.8120    0.0028 C.ar    1  LIG1        0.0961
     42 N         -11.6913    7.5945    0.0031 N.ar    1  LIG1       -0.3485
     43 H         -12.1390    6.7071    0.0027 H       1  LIG1        0.1661
     44 N          -8.9477    9.7280    0.0027 N.pl3   1  LIG1       -0.3558
     45 H          -8.2823    9.1492   -0.4687 H       1  LIG1        0.1424
     46 H          -9.0178   10.6071   -0.4687 H       1  LIG1        0.1424
     47 C         -11.6058   11.0692    0.0041 C.3     3  LIG3       -0.0681
     48 H         -12.5270   11.2734    0.5088 H       2  LIG2        0.0227
     49 H         -11.6661   11.4214   -1.0045 H       2  LIG2        0.0227
     50 H         -10.8046   11.5675    0.5087 H       2  LIG2        0.0227
     51 C         -13.6311    8.8958    0.0030 C.ar    1  LIG1        0.1951
     52 C         -14.5502    9.9245    0.0180 C.ar    1  LIG1        0.1852
     53 C         -15.8612    9.3097    0.0076 C.ar    1  LIG1        0.1397
     54 C         -15.6562    7.9454   -0.0132 C.ar    1  LIG1        0.1583
     55 O         -14.2893    7.6653   -0.0165 O.2     1  LIG1       -0.4481
     56 O         -14.3135   11.2027    0.0378 O.3     1  LIG1       -0.4901
     57 C         -12.9011   11.4265    0.0450 C.3     1  LIG1        0.0790
     58 H         -12.7068   12.4786    0.0611 H       1  LIG1        0.0660
     59 H         -12.4723   10.9713    0.9132 H       1  LIG1        0.0660
     60 H         -12.4675   10.9972   -0.8339 H       1  LIG1        0.0660
     61 N         -17.9964   10.5040    0.0241 N.1     1  LIG1       -0.1906
     62 C         -16.9957    9.9443    0.0163 C.1     1  LIG1        0.1067
     63 C         -15.8570    5.6050   -0.0388 C.ar    1  LIG1        0.0390
     64 C         -16.4207    6.8941   -0.0299 C.ar    1  LIG1        0.0380
     65 C         -17.8116    7.0136   -0.0390 C.ar    1  LIG1       -0.0301
     66 C         -18.5857    5.8521   -0.0567 C.ar    1  LIG1        0.0785
     67 C         -17.9294    4.6077   -0.0647 C.ar    1  LIG1        0.0935
     68 N         -16.5887    4.4740   -0.0560 N.ar    1  LIG1       -0.2528
     69 H         -18.2881    8.0041   -0.0334 H       1  LIG1        0.0639
     70 H         -14.5672    5.4425   -0.0308 H       1  LIG1        0.0837
     71 N         -21.0298    5.9614   -0.0741 N.1     1  LIG1       -0.1908
     72 C         -19.8844    5.9102   -0.0659 C.1     1  LIG1        0.1013
     73 C         -17.9410    2.2587   -0.0899 C.ar    1  LIG1        0.2248
     74 C         -18.6067    3.4982   -0.0811 C.ar    1  LIG1        0.0666
     75 C         -20.0027    3.5052   -0.0901 C.ar    1  LIG1       -0.0034
     76 C         -20.6808    2.2852   -0.1076 C.ar    1  LIG1        0.1500
     77 C         -19.9263    1.0977   -0.1154 C.ar    1  LIG1        0.1549
     78 N         -18.5792    1.0725   -0.1068 N.ar    1  LIG1       -0.2054
     79 H         -20.5574    4.4542   -0.0846 H       1  LIG1        0.0663
     80 O         -16.6423    2.2006   -0.0821 O.3     1  LIG1       -0.4792
     81 C         -16.2257    0.8326   -0.0793 C.3     1  LIG1        0.0804
     82 H         -15.1568    0.7853   -0.0729 H       1  LIG1        0.0660
     83 H         -16.6095    0.3447    0.7923 H       1  LIG1        0.0660
     84 H         -16.5992    0.3442   -0.9549 H       1  LIG1        0.0660
     85 O         -21.9799    2.2384   -0.1166 O.3     1  LIG1       -0.4928
     86 C         -22.5054    3.5684   -0.1200 C.3     1  LIG1        0.0789
     87 H         -23.5747    3.5294   -0.1277 H       1  LIG1        0.0660
     88 H         -22.1736    4.0853    0.7562 H       1  LIG1        0.0660
     89 H         -22.1611    4.0857   -0.9911 H       1  LIG1        0.0660
     90 C         -20.5120   -0.0628   -0.1316 C.ar    1  LIG1        0.1990
     91 C         -21.8187   -0.5047   -0.1438 C.ar    1  LIG1        0.1800
     92 C         -21.7671   -1.9518   -0.1596 C.ar    1  LIG1        0.1045
     93 C         -20.4316   -2.2983   -0.1561 C.ar    1  LIG1        0.1117
     94 O         -19.6380   -1.1508   -0.1390 O.2     1  LIG1       -0.4562
     95 H         -19.7641   -3.4138   -0.1647 H       1  LIG1        0.1043
     96 O         -22.9019    0.2142   -0.1418 O.3     1  LIG1       -0.5024
     97 H         -23.6693   -0.3626   -0.1413 H       1  LIG1        0.2923
     98 C         -22.7958   -2.7465   -0.1742 C.1     1  LIG1       -0.0628
     99 C         -23.7463   -3.4808   -0.1876 C.1     1  LIG1       -0.1137
    100 H         -24.5930   -4.1349   -0.1996 H       1  LIG1        0.1232
@<TRIPOS>BOND
     1    49    47    1
     2    89    86    1
     3    84    81    1
     4    60    57    1
     5    34    32    1
     6    33    32    1
     7    23    21    1
     8    22    12    1
     9    46    44    1
    10    45    44    1
    11   100    99    1
    12    99    98    3
    13    98    92    1
    14    95    93    1
    15    92    93   ar
    16    92    91   ar
    17    93    94   ar
    18    91    96    1
    19    91    90   ar
    20    96    97    1
    21    94    90   ar
    22    90    77    1
    23    87    86    1
    24    86    85    1
    25    86    88    1
    26    85    76    1
    27    77    76   ar
    28    77    78   ar
    29    76    75   ar
    30    78    73   ar
    31    75    79    1
    32    75    74   ar
    33    73    80    1
    34    73    74   ar
    35    80    81    1
    36    74    67    1
    37    81    82    1
    38    81    83    1
    39    71    72    3
    40    72    66    1
    41    67    66   ar
    42    67    68   ar
    43    66    65   ar
    44    68    63   ar
    45    65    69    1
    46    65    64   ar
    47    63    70    1
    48    63    64   ar
    49    32    25    1
    50    64    54    1
    51    25    30   ar
    52    25    26   ar
    53    30    29   ar
    54    55    54   ar
    55    55    51   ar
    56    54    53   ar
    57     7     3    1
    58    20    18    1
    59    15    18   ar
    60    15     5    1
    61    15    13   ar
    62    18    19   ar
    63     5     4   ar
    64     5     6   ar
    65    12     4    1
    66     4     3   ar
    67     6     1   ar
    68    21    13    1
    69     1     2   ar
    70     1    10    1
    71     2     3   ar
    72     2     8    1
    73    10     9    3
    74    13    14   ar
    75    19    24    1
    76    19    16   ar
    77    14    16   ar
    78    14    17    1
    79    16    26    1
    80    39    44    1
    81    39    38   ar
    82    39    40   ar
    83    43    42    1
    84    41    51    1
    85    41    42   ar
    86    41    40   ar
    87    26    27   ar
    88    51    52   ar
    89    42    38   ar
    90    38    29    1
    91    29    28   ar
    92    47    50    1
    93    47    48    1
    94    53    62    1
    95    53    52   ar
    96    62    61    3
    97    52    56    1
    98    27    28   ar
    99    27    31    1
   100    28    35    1
   101    56    57    1
   102    35    36    3
   103    57    58    1
   104    57    59    1
   105    36    37    1
