@<TRIPOS>MOLECULE
mol_data/noopt/geoms/mol2/6dd4hh(220)13lh(190)13dd(280).out
 51 54 0 0 0
SMALL
GASTEIGER

@<TRIPOS>ATOM
      1 C          -4.5775   -2.0270    0.0001 C.ar    1  LIG1        0.1408
      2 C          -3.1706   -2.0270    0.0001 C.ar    1  LIG1       -0.0245
      3 C          -2.5039   -0.8004    0.0001 C.ar    1  LIG1       -0.0396
      4 C          -3.2580    0.3743   -0.0001 C.ar    1  LIG1        0.0778
      5 C          -4.6612    0.2715   -0.0003 C.ar    1  LIG1        0.0916
      6 N          -5.3207   -0.9034   -0.0001 N.ar    1  LIG1       -0.2350
      7 H          -1.4054   -0.7607   -0.0009 H       1  LIG1        0.0632
      8 H          -2.5135   -3.1487    0.0004 H       1  LIG1        0.0646
      9 N          -5.8301   -4.1286    0.0003 N.1     1  LIG1       -0.1893
     10 C          -5.2431   -3.1437    0.0002 C.1     1  LIG1        0.1191
     11 N          -2.1789    2.5700   -0.0005 N.1     1  LIG1       -0.1908
     12 C          -2.6846    1.5410   -0.0003 C.1     1  LIG1        0.1013
     13 C          -6.5761    1.3755   -0.7868 C.ar    1  LIG1        0.0346
     14 C          -7.3484    2.5526   -0.7536 C.ar    1  LIG1       -0.0294
     15 C          -5.4065    1.3366   -0.0004 C.ar    1  LIG1        0.0240
     16 C          -6.9750    3.6438    0.0278 C.ar    1  LIG1        0.0243
     17 H          -8.2547    2.6039   -1.3529 H       1  LIG1        0.0643
     18 C          -5.0333    2.4256    0.7798 C.ar    1  LIG1       -0.0294
     19 C          -5.8140    3.5860    0.7997 C.ar    1  LIG1        0.0346
     20 H          -4.1269    2.3712    1.3774 H       1  LIG1        0.0643
     21 N          -6.9759    0.3904   -1.5350 N.pl3   1  LIG1       -0.3574
     22 H          -7.7329    0.6963   -2.1123 H       1  LIG1        0.1423
     23 H          -6.2198    0.0822   -2.1124 H       1  LIG1        0.1423
     24 N          -5.4601    4.6010    1.5309 N.pl3   1  LIG1       -0.3574
     25 H          -4.5110    4.8427    1.3286 H       1  LIG1        0.1423
     26 H          -6.0529    5.3805    1.3286 H       1  LIG1        0.1423
     27 C          -7.7117    4.7149    0.0348 C.ar    1  LIG1        0.0929
     28 C          -9.0534    4.8636   -0.1256 C.ar    1  LIG1        0.1665
     29 C          -9.3431    6.2627   -0.0300 C.ar    1  LIG1        0.0946
     30 C          -8.1659    6.9073    0.1863 C.ar    1  LIG1        0.0892
     31 N          -7.1645    5.9635    0.2263 N.ar    1  LIG1       -0.3485
     32 H          -6.1996    6.1534    0.3710 H       1  LIG1        0.1661
     33 O          -9.9121    3.9090   -0.3296 O.3     1  LIG1       -0.4911
     34 C         -11.2295    4.4601   -0.4046 C.3     1  LIG1        0.0790
     35 H         -11.9359    3.6742   -0.5727 H       1  LIG1        0.0660
     36 H         -11.4610    4.9572    0.5142 H       1  LIG1        0.0660
     37 H         -11.2774    5.1613   -1.2114 H       1  LIG1        0.0660
     38 N         -10.5144    6.8178   -0.1305 N.pl3   1  LIG1       -0.3534
     39 H         -10.4320    7.6823   -0.6263 H       1  LIG1        0.1425
     40 H         -11.1314    6.2067   -0.6263 H       1  LIG1        0.1425
     41 C          -7.9133    8.1732    0.3407 C.ar    1  LIG1        0.0837
     42 C          -7.5279    9.1122   -0.5635 C.ar    1  LIG1        0.0958
     43 C          -7.3869   10.3513    0.1404 C.ar    1  LIG1        0.0870
     44 C          -7.6941   10.1153    1.4434 C.ar    1  LIG1        0.0210
     45 N          -8.0165    8.7829    1.5705 N.ar    1  LIG1       -0.3572
     46 H          -8.2823    8.3329    2.4160 H       1  LIG1        0.1655
     47 H          -7.7129   10.9195    2.4647 H       1  LIG1        0.0820
     48 N          -7.1445    8.7451   -2.9519 N.1     1  LIG1       -0.1908
     49 C          -7.3241    8.9171   -1.8326 C.1     1  LIG1        0.1026
     50 N          -6.7180   12.5004   -0.8187 N.1     1  LIG1       -0.1908
     51 C          -7.0315   11.4932   -0.3692 C.1     1  LIG1        0.1020
@<TRIPOS>BOND
     1    48    49    3
     2    23    21    1
     3    22    21    1
     4    49    42    1
     5    21    13    1
     6    17    14    1
     7    37    34    1
     8    50    51    3
     9    13    14   ar
    10    13    15   ar
    11    14    16   ar
    12    40    38    1
    13    39    38    1
    14    35    34    1
    15    42    43   ar
    16    42    41   ar
    17    34    33    1
    18    34    36    1
    19    51    43    1
    20    33    28    1
    21    38    29    1
    22    28    29   ar
    23    28    27   ar
    24    29    30   ar
    25     7     3    1
    26    11    12    3
    27    15     5    1
    28    15    18   ar
    29    12     4    1
    30     5     6   ar
    31     5     4   ar
    32     6     1   ar
    33     4     3   ar
    34     1     2   ar
    35     1    10    1
    36     2     3   ar
    37     2     8    1
    38    10     9    3
    39    16    27    1
    40    16    19   ar
    41    27    31   ar
    42    43    44   ar
    43    30    31   ar
    44    30    41    1
    45    31    32    1
    46    41    45   ar
    47    18    19   ar
    48    18    20    1
    49    19    24    1
    50    26    24    1
    51    25    24    1
    52    44    45   ar
    53    44    47    1
    54    45    46    1
