@<TRIPOS>MOLECULE
mol_data/noopt/geoms/mol2/6dd4fh(170)6ah(210)6dl(140).out
 51 54 0 0 0
SMALL
GASTEIGER

@<TRIPOS>ATOM
      1 C          -4.5775   -2.0270    0.0001 C.ar    1  LIG1        0.1408
      2 C          -3.1706   -2.0270    0.0001 C.ar    1  LIG1       -0.0245
      3 C          -2.5039   -0.8004    0.0001 C.ar    1  LIG1       -0.0396
      4 C          -3.2580    0.3743   -0.0001 C.ar    1  LIG1        0.0779
      5 C          -4.6612    0.2715   -0.0003 C.ar    1  LIG1        0.0933
      6 N          -5.3207   -0.9034   -0.0001 N.ar    1  LIG1       -0.2349
      7 H          -1.4054   -0.7607   -0.0009 H       1  LIG1        0.0632
      8 H          -2.5135   -3.1487    0.0004 H       1  LIG1        0.0646
      9 N          -5.8301   -4.1286    0.0003 N.1     1  LIG1       -0.1893
     10 C          -5.2431   -3.1437    0.0002 C.1     1  LIG1        0.1191
     11 N          -2.1789    2.5700   -0.0005 N.1     1  LIG1       -0.1908
     12 C          -2.6846    1.5410   -0.0003 C.1     1  LIG1        0.1013
     13 C          -6.7957    1.2219    0.2111 C.ar    1  LIG1        0.1267
     14 C          -7.5595    2.4050    0.2002 C.ar    1  LIG1       -0.0100
     15 C          -5.4065    1.3366   -0.0004 C.ar    1  LIG1        0.0448
     16 C          -6.9682    3.6485   -0.0112 C.ar    1  LIG1        0.0077
     17 H          -8.6332    2.3392    0.3611 H       1  LIG1        0.0661
     18 C          -4.8157    2.5778   -0.2114 C.ar    1  LIG1       -0.0277
     19 C          -5.5914    3.7417   -0.2182 C.ar    1  LIG1        0.0333
     20 H          -3.7425    2.6401   -0.3722 H       1  LIG1        0.0644
     21 O          -7.4040    0.0909    0.4137 O.3     1  LIG1       -0.5061
     22 H          -6.7570   -0.6165    0.4636 H       1  LIG1        0.2922
     23 N          -5.0336    4.8992   -0.4162 N.pl3   1  LIG1       -0.3575
     24 H          -4.1862    4.7769   -0.9328 H       1  LIG1        0.1423
     25 H          -5.6573    5.4858   -0.9329 H       1  LIG1        0.1423
     26 C          -7.2394    5.9032    0.5897 C.ar    1  LIG1        0.0361
     27 C          -7.7035    4.7206   -0.0147 C.ar    1  LIG1        0.0039
     28 C          -8.9644    4.7286   -0.6141 C.ar    1  LIG1       -0.0297
     29 C          -9.7126    5.9068   -0.5896 C.ar    1  LIG1        0.0516
     30 C          -9.1626    7.0386    0.0397 C.ar    1  LIG1        0.0944
     31 N          -7.9479    7.0486    0.6226 N.ar    1  LIG1       -0.2524
     32 H          -9.3608    3.8233   -1.0953 H       1  LIG1        0.0643
     33 H          -6.0722    5.9453    1.1604 H       1  LIG1        0.0836
     34 N         -10.8920    5.9654   -1.1334 N.pl3   1  LIG1       -0.3563
     35 H         -10.9569    6.7861   -1.7010 H       1  LIG1        0.1424
     36 H         -11.0379    5.1551   -1.7010 H       1  LIG1        0.1424
     37 C          -9.3935    9.2677   -0.6646 C.ar    1  LIG1        0.1494
     38 C          -9.8207    8.1587    0.0883 C.ar    1  LIG1        0.0414
     39 C         -10.9612    8.2914    0.8825 C.ar    1  LIG1       -0.0065
     40 C         -11.6304    9.5163    0.8980 C.ar    1  LIG1        0.1388
     41 C         -11.1256   10.5674    0.1106 C.ar    1  LIG1        0.0707
     42 N         -10.0269   10.4566   -0.6615 N.ar    1  LIG1       -0.2403
     43 H         -11.3245    7.4471    1.4853 H       1  LIG1        0.0662
     44 H         -11.7137   11.7265    0.0916 H       1  LIG1        0.0867
     45 N          -7.4060    9.1273   -2.0845 N.1     1  LIG1       -0.1893
     46 C          -8.3374    9.1931   -1.4191 C.1     1  LIG1        0.1198
     47 O         -12.6967    9.6905    1.6211 O.3     1  LIG1       -0.4936
     48 C         -12.8708   11.0848    1.8865 C.3     1  LIG1        0.0789
     49 H         -13.7486   11.2278    2.4815 H       1  LIG1        0.0660
     50 H         -12.0176   11.4567    2.4144 H       1  LIG1        0.0660
     51 H         -12.9765   11.6134    0.9622 H       1  LIG1        0.0660
@<TRIPOS>BOND
     1    45    46    3
     2    36    34    1
     3    35    34    1
     4    46    37    1
     5    34    29    1
     6    32    28    1
     7    25    23    1
     8    24    23    1
     9    37    42   ar
    10    37    38   ar
    11    42    41   ar
    12    28    29   ar
    13    28    27   ar
    14    29    30   ar
    15    23    19    1
    16    20    18    1
    17    19    18   ar
    18    19    16   ar
    19    18    15   ar
    20    27    16    1
    21    27    26   ar
    22    16    14   ar
    23     7     3    1
    24    11    12    3
    25    15     5    1
    26    15    13   ar
    27    12     4    1
    28     5     4   ar
    29     5     6   ar
    30     4     3   ar
    31     6     1   ar
    32     2     3   ar
    33     2     1   ar
    34     2     8    1
    35     1    10    1
    36    10     9    3
    37    30    38    1
    38    30    31   ar
    39    38    39   ar
    40    44    41    1
    41    41    40   ar
    42    14    13   ar
    43    14    17    1
    44    13    21    1
    45    21    22    1
    46    26    31   ar
    47    26    33    1
    48    39    40   ar
    49    39    43    1
    50    40    47    1
    51    51    48    1
    52    47    48    1
    53    48    50    1
    54    48    49    1
