@<TRIPOS>MOLECULE
mol_data/noopt/geoms/mol2/6dd6di-13af12fh-.out
 45 48 0 0 0
SMALL
GASTEIGER

@<TRIPOS>ATOM
      1 C          -4.5775   -2.0270    0.0001 C.ar    1  LIG1        0.1408
      2 C          -3.1706   -2.0270    0.0001 C.ar    1  LIG1       -0.0245
      3 C          -2.5039   -0.8004    0.0001 C.ar    1  LIG1       -0.0396
      4 C          -3.2580    0.3743   -0.0001 C.ar    1  LIG1        0.0778
      5 C          -4.6612    0.2715   -0.0003 C.ar    1  LIG1        0.0925
      6 N          -5.3207   -0.9034   -0.0001 N.ar    1  LIG1       -0.2350
      7 H          -1.4054   -0.7607   -0.0009 H       1  LIG1        0.0632
      8 H          -2.5135   -3.1487    0.0004 H       1  LIG1        0.0646
      9 N          -5.8301   -4.1286    0.0003 N.1     1  LIG1       -0.1893
     10 C          -5.2431   -3.1437    0.0002 C.1     1  LIG1        0.1191
     11 N          -2.1789    2.5700   -0.0005 N.1     1  LIG1       -0.1908
     12 C          -2.6846    1.5410   -0.0003 C.1     1  LIG1        0.1013
     13 C          -6.8087    1.2234   -0.0215 C.ar    1  LIG1        0.1499
     14 C          -5.4065    1.3366   -0.0004 C.ar    1  LIG1        0.0378
     15 C          -4.8409    2.6128    0.0206 C.ar    1  LIG1       -0.0448
     16 C          -5.6872    3.7230    0.0196 C.ar    1  LIG1       -0.0223
     17 C          -7.0774    3.5076   -0.0025 C.ar    1  LIG1        0.0916
     18 N          -7.6400    2.2835   -0.0227 N.ar    1  LIG1       -0.2340
     19 H          -3.7493    2.7408    0.0363 H       1  LIG1        0.0628
     20 N          -7.8877   -0.9721   -0.0588 N.1     1  LIG1       -0.1893
     21 C          -7.3820    0.0568   -0.0413 C.1     1  LIG1        0.1198
     22 C          -5.2097    4.9323    0.0384 C.3     1  LIG1       -0.0376
     23 H          -5.8939    5.5781    0.5479 H       1  LIG1        0.0278
     24 H          -5.0734    5.2776   -0.9652 H       1  LIG1        0.0278
     25 H          -4.2687    4.9363    0.5479 H       1  LIG1        0.0278
     26 C          -7.9061    4.5092   -0.0043 C.ar    1  LIG1        0.0693
     27 C          -7.6712    5.8482   -0.0058 C.ar    1  LIG1        0.0074
     28 C          -8.9435    6.5055   -0.0062 C.ar    1  LIG1        0.1458
     29 C          -9.8998    5.5394   -0.0067 C.ar    1  LIG1        0.1282
     30 N          -9.2691    4.3157   -0.0051 N.ar    1  LIG1       -0.3475
     31 H          -9.7253    3.4326   -0.0051 H       1  LIG1        0.1661
     32 H          -6.5050    6.4225   -0.0053 H       1  LIG1        0.0676
     33 O          -9.1499    7.7891   -0.0066 O.3     1  LIG1       -0.5045
     34 H         -10.0942    7.9617   -0.0067 H       1  LIG1        0.2922
     35 C         -11.1962    5.6357   -0.0074 C.ar    1  LIG1        0.1975
     36 C         -12.1052    6.6734   -0.0079 C.ar    1  LIG1        0.1854
     37 C         -13.4221    6.0712   -0.0085 C.ar    1  LIG1        0.1057
     38 C         -13.2304    4.7049   -0.0085 C.ar    1  LIG1        0.1170
     39 O         -11.8663    4.4115   -0.0079 O.2     1  LIG1       -0.4556
     40 H         -14.0050    3.6609   -0.0088 H       1  LIG1        0.1050
     41 O         -11.8562    7.9493   -0.0077 O.3     1  LIG1       -0.5020
     42 H         -12.6830    8.4372   -0.0076 H       1  LIG1        0.2924
     43 N         -14.5505    6.7169   -0.0091 N.pl3   1  LIG1       -0.3527
     44 H         -14.4340    7.5910   -0.4806 H       1  LIG1        0.1425
     45 H         -15.2451    6.1737   -0.4807 H       1  LIG1        0.1425
@<TRIPOS>BOND
     1    24    22    1
     2    45    43    1
     3    44    43    1
     4    20    21    3
     5    21    13    1
     6    18    13   ar
     7    18    17   ar
     8    13    14   ar
     9    43    37    1
    10    40    38    1
    11    37    38   ar
    12    37    36   ar
    13    38    39   ar
    14    36    41    1
    15    36    35   ar
    16    39    35   ar
    17    41    42    1
    18    35    29    1
    19    29    28   ar
    20    29    30   ar
    21    34    33    1
    22    33    28    1
    23    28    27   ar
    24    27    32    1
    25    27    26   ar
    26    31    30    1
    27    30    26   ar
    28    26    17    1
    29    17    16   ar
    30     7     3    1
    31    11    12    3
    32    14     5    1
    33    14    15   ar
    34    12     4    1
    35     5     6   ar
    36     5     4   ar
    37     6     1   ar
    38     4     3   ar
    39     1     2   ar
    40     1    10    1
    41     3     2   ar
    42     2     8    1
    43    10     9    3
    44    16    15   ar
    45    16    22    1
    46    15    19    1
    47    22    25    1
    48    22    23    1
