@<TRIPOS>MOLECULE
mol_data/noopt/geoms/mol2/6dd6dd.out
 24 25 0 0 0
SMALL
GASTEIGER

@<TRIPOS>ATOM
      1 C          -4.5775   -2.0270    0.0001 C.ar    1  LIG1        0.1408
      2 C          -3.1706   -2.0270    0.0001 C.ar    1  LIG1       -0.0245
      3 C          -2.5039   -0.8004    0.0001 C.ar    1  LIG1       -0.0396
      4 C          -3.2580    0.3743   -0.0001 C.ar    1  LIG1        0.0778
      5 C          -4.6612    0.2715   -0.0003 C.ar    1  LIG1        0.0925
      6 N          -5.3207   -0.9034   -0.0001 N.ar    1  LIG1       -0.2350
      7 H          -1.4054   -0.7607   -0.0009 H       1  LIG1        0.0632
      8 H          -2.5135   -3.1487    0.0004 H       1  LIG1        0.0646
      9 N          -5.8301   -4.1286    0.0003 N.1     1  LIG1       -0.1893
     10 C          -5.2431   -3.1437    0.0002 C.1     1  LIG1        0.1191
     11 N          -2.1789    2.5700   -0.0005 N.1     1  LIG1       -0.1908
     12 C          -2.6846    1.5410   -0.0003 C.1     1  LIG1        0.1013
     13 C          -6.8088    1.2233   -0.0003 C.ar    1  LIG1        0.1493
     14 C          -5.4065    1.3366   -0.0004 C.ar    1  LIG1        0.0387
     15 C          -4.8408    2.6129   -0.0003 C.ar    1  LIG1       -0.0309
     16 C          -5.6871    3.7231   -0.0003 C.ar    1  LIG1        0.0705
     17 C          -7.0774    3.5076   -0.0004 C.ar    1  LIG1        0.0464
     18 N          -7.6401    2.2834   -0.0003 N.ar    1  LIG1       -0.2427
     19 H          -3.7491    2.7410   -0.0014 H       1  LIG1        0.0638
     20 H          -7.9061    4.5092   -0.0003 H       1  LIG1        0.0843
     21 N          -7.8881   -0.9724   -0.0003 N.1     1  LIG1       -0.1893
     22 C          -7.3823    0.0566   -0.0003 C.1     1  LIG1        0.1198
     23 N          -4.7883    5.9986   -0.0004 N.1     1  LIG1       -0.1908
     24 C          -5.2095    4.9322   -0.0004 C.1     1  LIG1        0.1007
@<TRIPOS>BOND
     1    19    15    1
     2     7     3    1
     3    11    12    3
     4    23    24    3
     5    14     5    1
     6    14    13   ar
     7    14    15   ar
     8    17    18   ar
     9    17    20    1
    10    17    16   ar
    11    24    16    1
    12     5     6   ar
    13     5     4   ar
    14    12     4    1
    15    13    22    1
    16    13    18   ar
    17    15    16   ar
    18    22    21    3
    19     6     1   ar
    20     4     3   ar
    21     1     2   ar
    22     1    10    1
    23     3     2   ar
    24     2     8    1
    25    10     9    3
