@<TRIPOS>MOLECULE
mol_data/noopt/geoms/mol2/6dd6dd6dd6dd.out
 46 49 0 0 0
SMALL
GASTEIGER

@<TRIPOS>ATOM
      1 C          -4.5775   -2.0270    0.0001 C.ar    1  LIG1        0.1408
      2 C          -3.1706   -2.0270    0.0001 C.ar    1  LIG1       -0.0245
      3 C          -2.5039   -0.8004    0.0001 C.ar    1  LIG1       -0.0396
      4 C          -3.2580    0.3743   -0.0001 C.ar    1  LIG1        0.0778
      5 C          -4.6612    0.2715   -0.0003 C.ar    1  LIG1        0.0925
      6 N          -5.3207   -0.9034   -0.0001 N.ar    1  LIG1       -0.2350
      7 H          -1.4054   -0.7607   -0.0009 H       1  LIG1        0.0632
      8 H          -2.5135   -3.1487    0.0004 H       1  LIG1        0.0646
      9 N          -5.8301   -4.1286    0.0003 N.1     1  LIG1       -0.1893
     10 C          -5.2431   -3.1437    0.0002 C.1     1  LIG1        0.1191
     11 N          -2.1789    2.5700   -0.0005 N.1     1  LIG1       -0.1908
     12 C          -2.6846    1.5410   -0.0003 C.1     1  LIG1        0.1013
     13 C          -6.8088    1.2233   -0.0003 C.ar    1  LIG1        0.1500
     14 C          -5.4065    1.3366   -0.0004 C.ar    1  LIG1        0.0387
     15 C          -4.8408    2.6129   -0.0003 C.ar    1  LIG1       -0.0303
     16 C          -5.6871    3.7231   -0.0003 C.ar    1  LIG1        0.0785
     17 C          -7.0774    3.5076   -0.0004 C.ar    1  LIG1        0.0926
     18 N          -7.6401    2.2834   -0.0003 N.ar    1  LIG1       -0.2343
     19 H          -3.7491    2.7410   -0.0014 H       1  LIG1        0.0638
     20 N          -7.8881   -0.9724   -0.0003 N.1     1  LIG1       -0.1893
     21 C          -7.3823    0.0566   -0.0003 C.1     1  LIG1        0.1198
     22 N          -4.7883    5.9986   -0.0004 N.1     1  LIG1       -0.1908
     23 C          -5.2095    4.9322   -0.0004 C.1     1  LIG1        0.1013
     24 C          -9.2948    4.2833   -0.0001 C.ar    1  LIG1        0.1500
     25 C          -7.9061    4.5092   -0.0003 C.ar    1  LIG1        0.0387
     26 C          -7.4450    5.8270   -0.0001 C.ar    1  LIG1       -0.0303
     27 C          -8.3780    6.8653    0.0002 C.ar    1  LIG1        0.0785
     28 C          -9.7465    6.5385    0.0002 C.ar    1  LIG1        0.0926
     29 N         -10.2087    5.2730    0.0002 N.ar    1  LIG1       -0.2343
     30 H          -6.3672    6.0425   -0.0012 H       1  LIG1        0.0638
     31 N         -10.1937    2.0078   -0.0002 N.1     1  LIG1       -0.1893
     32 C          -9.7724    3.0742   -0.0002 C.1     1  LIG1        0.1198
     33 N          -7.6654    9.2059    0.0002 N.1     1  LIG1       -0.1908
     34 C          -7.9994    8.1090    0.0002 C.1     1  LIG1        0.1013
     35 C         -12.0191    7.1331    0.0008 C.ar    1  LIG1        0.1493
     36 C         -10.6531    7.4702    0.0005 C.ar    1  LIG1        0.0387
     37 C         -10.2997    8.8208    0.0008 C.ar    1  LIG1       -0.0309
     38 C         -11.3132    9.7806    0.0012 C.ar    1  LIG1        0.0705
     39 C         -12.6510    9.3446    0.0013 C.ar    1  LIG1        0.0464
     40 N         -13.0098    8.0460    0.0012 N.ar    1  LIG1       -0.2427
     41 H          -9.2427    9.1225   -0.0004 H       1  LIG1        0.0638
     42 H         -13.6297   10.2002    0.0018 H       1  LIG1        0.0843
     43 N         -12.7318    4.7926    0.0004 N.1     1  LIG1       -0.1893
     44 C         -12.3978    5.8895    0.0006 C.1     1  LIG1        0.1198
     45 N         -10.7915   12.1709    0.0015 N.1     1  LIG1       -0.1908
     46 C         -11.0360   11.0507    0.0014 C.1     1  LIG1        0.1007
@<TRIPOS>BOND
     1    19    15    1
     2    30    26    1
     3     7     3    1
     4    11    12    3
     5    41    37    1
     6    22    23    3
     7    14     5    1
     8    14    13   ar
     9    14    15   ar
    10    17    18   ar
    11    17    25    1
    12    17    16   ar
    13    23    16    1
    14     5     6   ar
    15     5     4   ar
    16    12     4    1
    17    13    21    1
    18    13    18   ar
    19    15    16   ar
    20    21    20    3
    21    25    24   ar
    22    25    26   ar
    23    31    32    3
    24    32    24    1
    25     6     1   ar
    26     4     3   ar
    27    24    29   ar
    28    26    27   ar
    29     1     2   ar
    30     1    10    1
    31     3     2   ar
    32     2     8    1
    33    29    28   ar
    34    28    27   ar
    35    28    36    1
    36    27    34    1
    37    34    33    3
    38    10     9    3
    39    43    44    3
    40    36    35   ar
    41    36    37   ar
    42    44    35    1
    43    35    40   ar
    44    37    38   ar
    45    40    39   ar
    46    38    39   ar
    47    38    46    1
    48    39    42    1
    49    46    45    3
