@<TRIPOS>MOLECULE
mol_data/noopt/geoms/mol2/6de12li(70)6fd(190)6hh(60).out
 52 55 0 0 0
SMALL
GASTEIGER

@<TRIPOS>ATOM
      1 C          -4.5775   -2.0270    0.0001 C.ar    1  LIG1        0.1409
      2 C          -3.1706   -2.0270    0.0001 C.ar    1  LIG1       -0.0246
      3 C          -2.5039   -0.8004    0.0001 C.ar    1  LIG1       -0.0415
      4 C          -3.2580    0.3743   -0.0001 C.ar    1  LIG1        0.0538
      5 C          -4.6612    0.2715   -0.0003 C.ar    1  LIG1        0.1264
      6 N          -5.3207   -0.9034   -0.0001 N.ar    1  LIG1       -0.2319
      7 H          -1.4054   -0.7607   -0.0009 H       1  LIG1        0.0631
      8 H          -2.5135   -3.1487    0.0004 H       1  LIG1        0.0646
      9 N          -5.8301   -4.1286    0.0003 N.1     1  LIG1       -0.1893
     10 C          -5.2431   -3.1437    0.0002 C.1     1  LIG1        0.1191
     11 C          -2.6846    1.5410   -0.0003 C.1     1  LIG1       -0.0674
     12 C          -2.1548    2.6190   -0.0005 C.1     1  LIG1       -0.1138
     13 H          -1.6828    3.5793   -0.0006 H       1  LIG1        0.1232
     14 C          -5.4065    1.3366   -0.0004 C.ar    1  LIG1        0.1966
     15 C          -5.6662    2.3552    0.8929 C.ar    1  LIG1        0.1707
     16 C          -6.6130    3.2411    0.2482 C.ar    1  LIG1        0.0379
     17 C          -6.8691    2.7048   -0.9970 C.ar    1  LIG1        0.1474
     18 O          -6.1368    1.5304   -1.1738 O.2     1  LIG1       -0.4490
     19 O          -5.1723    2.5132    2.0851 O.3     1  LIG1       -0.4910
     20 C          -4.5803    1.2873    2.5227 C.3     1  LIG1        0.0790
     21 H          -4.1738    1.4178    3.5039 H       1  LIG1        0.0660
     22 H          -5.3250    0.5193    2.5445 H       1  LIG1        0.0660
     23 H          -3.7990    1.0074    1.8473 H       1  LIG1        0.0660
     24 C          -7.1096    4.3257    0.7656 C.3     1  LIG1       -0.0326
     25 H          -7.9566    4.0771    1.3703 H       1  LIG1        0.0280
     26 H          -7.4129    4.9883   -0.0180 H       1  LIG1        0.0280
     27 H          -6.3678    4.8044    1.3702 H       1  LIG1        0.0280
     28 C          -7.6880    4.3722   -2.4349 C.ar    1  LIG1        0.2239
     29 C          -7.6129    3.0326   -2.0115 C.ar    1  LIG1        0.0802
     30 C          -8.3522    2.0721   -2.7043 C.ar    1  LIG1       -0.0265
     31 C          -9.1346    2.4782   -3.7866 C.ar    1  LIG1        0.0787
     32 C          -9.1447    3.8416   -4.1339 C.ar    1  LIG1        0.0955
     33 N          -8.4375    4.7815   -3.4768 N.ar    1  LIG1       -0.2110
     34 H          -8.3195    1.0158   -2.4020 H       1  LIG1        0.0640
     35 O          -7.0180    5.3026   -1.8220 O.3     1  LIG1       -0.4919
     36 H          -7.5872    6.0607   -1.6709 H       1  LIG1        0.2938
     37 N         -10.4644    0.8676   -5.0608 N.1     1  LIG1       -0.1908
     38 C          -9.8412    1.6224   -4.4637 C.1     1  LIG1        0.1013
     39 C          -9.8658    3.5653   -6.3525 C.ar    1  LIG1        0.1255
     40 C          -9.8573    4.2684   -5.1339 C.ar    1  LIG1        0.0430
     41 C         -10.6286    5.4272   -5.0274 C.ar    1  LIG1       -0.0271
     42 C         -11.3754    5.8412   -6.1318 C.ar    1  LIG1        0.0437
     43 C         -11.3187    5.0708   -7.3077 C.ar    1  LIG1        0.0503
     44 N         -10.5802    3.9503   -7.4277 N.ar    1  LIG1       -0.2382
     45 H         -10.6463    6.0035   -4.0915 H       1  LIG1        0.0644
     46 H         -11.9962    5.4153   -8.3623 H       1  LIG1        0.0849
     47 N          -9.1640    2.4809   -6.5001 N.pl3   1  LIG1       -0.3426
     48 H          -9.6987    1.8043   -7.0063 H       1  LIG1        0.1437
     49 H          -8.3278    2.6914   -7.0064 H       1  LIG1        0.1437
     50 N         -12.1092    6.9132   -6.0832 N.pl3   1  LIG1       -0.3568
     51 H         -11.6335    7.6638   -6.5418 H       1  LIG1        0.1424
     52 H         -12.9810    6.7414   -6.5419 H       1  LIG1        0.1424
@<TRIPOS>BOND
     1    46    43    1
     2    44    43   ar
     3    44    39   ar
     4    43    42   ar
     5    49    47    1
     6    48    47    1
     7    52    50    1
     8    51    50    1
     9    47    39    1
    10    39    40   ar
    11    42    50    1
    12    42    41   ar
    13    40    41   ar
    14    40    32    1
    15    37    38    3
    16    41    45    1
    17    38    31    1
    18    32    31   ar
    19    32    33   ar
    20    31    30   ar
    21    33    28   ar
    22    30    34    1
    23    30    29   ar
    24    28    29   ar
    25    28    35    1
    26    29    17    1
    27    35    36    1
    28    18    17   ar
    29    18    14   ar
    30    17    16   ar
    31    26    24    1
    32     7     3    1
    33    13    12    1
    34    12    11    3
    35    14     5    1
    36    14    15   ar
    37    11     4    1
    38     5     6   ar
    39     5     4   ar
    40     6     1   ar
    41     4     3   ar
    42     1     2   ar
    43     1    10    1
    44     3     2   ar
    45     2     8    1
    46    10     9    3
    47    16    24    1
    48    16    15   ar
    49    24    27    1
    50    24    25    1
    51    15    19    1
    52    23    20    1
    53    19    20    1
    54    20    22    1
    55    20    21    1
