@<TRIPOS>MOLECULE
mol_data/noopt/geoms/mol2/6de12lh(180)13hf(300)13le(330).out
 52 54 0 0 0
SMALL
GASTEIGER

@<TRIPOS>ATOM
      1 C          -4.5775   -2.0270    0.0001 C.ar    1  LIG1        0.1409
      2 C          -3.1706   -2.0270    0.0001 C.ar    1  LIG1       -0.0246
      3 C          -2.5039   -0.8004    0.0001 C.ar    1  LIG1       -0.0415
      4 C          -3.2580    0.3743   -0.0001 C.ar    1  LIG1        0.0538
      5 C          -4.6612    0.2715   -0.0003 C.ar    1  LIG1        0.1265
      6 N          -5.3207   -0.9034   -0.0001 N.ar    1  LIG1       -0.2319
      7 H          -1.4054   -0.7607   -0.0009 H       1  LIG1        0.0631
      8 H          -2.5135   -3.1487    0.0004 H       1  LIG1        0.0646
      9 N          -5.8301   -4.1286    0.0003 N.1     1  LIG1       -0.1893
     10 C          -5.2431   -3.1437    0.0002 C.1     1  LIG1        0.1191
     11 C          -2.6846    1.5410   -0.0003 C.1     1  LIG1       -0.0674
     12 C          -2.1548    2.6190   -0.0005 C.1     1  LIG1       -0.1138
     13 H          -1.6828    3.5793   -0.0006 H       1  LIG1        0.1232
     14 C          -5.4065    1.3366   -0.0004 C.ar    1  LIG1        0.1984
     15 C          -6.7630    1.5877   -0.0005 C.ar    1  LIG1        0.1886
     16 C          -6.9184    3.0274   -0.0006 C.ar    1  LIG1        0.1155
     17 C          -5.6459    3.5608   -0.0005 C.ar    1  LIG1        0.1779
     18 O          -4.6967    2.5382   -0.0003 O.2     1  LIG1       -0.4460
     19 O          -7.7325    0.7215   -0.0005 O.3     1  LIG1       -0.4896
     20 C          -8.9865    1.4088   -0.0006 C.3     1  LIG1        0.0791
     21 H          -9.7841    0.6956   -0.0008 H       1  LIG1        0.0660
     22 H          -9.0570    2.0225    0.8732 H       1  LIG1        0.0660
     23 H          -9.0567    2.0227   -0.8741 H       1  LIG1        0.0660
     24 N          -8.0500    3.6673   -0.0006 N.pl3   1  LIG1       -0.3521
     25 H          -7.9382    4.5421   -0.4721 H       1  LIG1        0.1425
     26 H          -8.7420    3.1207   -0.4721 H       1  LIG1        0.1425
     27 C          -5.1444    4.7602   -0.0006 C.ar    1  LIG1        0.1061
     28 C          -4.2972    5.3618   -0.8771 C.ar    1  LIG1        0.0619
     29 C          -4.0631    6.6920   -0.4011 C.ar    1  LIG1        0.0342
     30 C          -4.7789    6.8452    0.7445 C.ar    1  LIG1        0.0768
     31 N          -5.4420    5.6648    0.9936 N.ar    1  LIG1       -0.3485
     32 H          -6.0411    5.4931    1.7679 H       1  LIG1        0.1661
     33 N          -3.7932    4.8248   -1.9483 N.pl3   1  LIG1       -0.3558
     34 H          -4.5252    4.4116   -2.4900 H       1  LIG1        0.1424
     35 H          -3.3345    5.5290   -2.4901 H       1  LIG1        0.1424
     36 O          -3.3067    7.5902   -0.9589 O.3     2  HOH2       -0.2528
     37 H          -3.8125    8.3945   -1.0964 H       0  HOH0        0.2528
     38 C          -4.8906    7.8682    1.5388 C.ar    1  LIG1        0.1070
     39 C          -4.0907    8.9564    1.6933 C.ar    1  LIG1        0.1620
     40 C          -4.6785    9.7788    2.7077 C.ar    1  LIG1        0.0842
     41 C          -5.8127    9.1578    3.1272 C.ar    1  LIG1        0.0213
     42 N          -5.9461    7.9875    2.4145 N.ar    1  LIG1       -0.3554
     43 H          -6.6873    7.3329    2.5157 H       1  LIG1        0.1655
     44 H          -6.6837    9.5092    4.0260 H       1  LIG1        0.0820
     45 O          -2.9938    9.2012    1.0398 O.3     1  LIG1       -0.4917
     46 C          -2.2976    7.9754    0.7998 C.3     1  LIG1        0.0789
     47 H          -1.3950    8.1773    0.2618 H       1  LIG1        0.0660
     48 H          -2.0596    7.5115    1.7343 H       1  LIG1        0.0660
     49 H          -2.9171    7.3202    0.2239 H       1  LIG1        0.0660
     50 C          -4.2161   10.9110    3.1484 C.1     1  LIG1       -0.0645
     51 C          -3.7888   11.9572    3.5556 C.1     1  LIG1       -0.1137
     52 H          -3.4082   12.8891    3.9183 H       1  LIG1        0.1232
@<TRIPOS>BOND
     1    35    33    1
     2    34    33    1
     3    33    28    1
     4    37    36    1
     5    28    29   ar
     6    28    27   ar
     7    23    20    1
     8    26    24    1
     9    25    24    1
    10    29    30   ar
    11     7     3    1
    12    21    20    1
    13    13    12    1
    14    24    16    1
    15    20    19    1
    16    20    22    1
    17    16    17   ar
    18    16    15   ar
    19    27    17    1
    20    27    31   ar
    21    19    15    1
    22    12    11    3
    23    17    18   ar
    24    15    14   ar
    25    14     5    1
    26    14    18   ar
    27    11     4    1
    28     5     6   ar
    29     5     4   ar
    30     6     1   ar
    31     4     3   ar
    32     1     2   ar
    33     1    10    1
    34     3     2   ar
    35     2     8    1
    36    10     9    3
    37    49    46    1
    38    47    46    1
    39    30    31   ar
    40    30    38    1
    41    46    45    1
    42    46    48    1
    43    31    32    1
    44    45    39    1
    45    38    39   ar
    46    38    42   ar
    47    39    40   ar
    48    42    43    1
    49    42    41   ar
    50    40    41   ar
    51    40    50    1
    52    41    44    1
    53    50    51    3
    54    51    52    1
