@<TRIPOS>MOLECULE
mol_data/noopt/geoms/mol2/6de4lh(270)12ee(130)13ae(130).out
 51 54 0 0 0
SMALL
GASTEIGER

@<TRIPOS>ATOM
      1 C          -4.5775   -2.0270    0.0001 C.ar    1  LIG1        0.1408
      2 C          -3.1706   -2.0270    0.0001 C.ar    1  LIG1       -0.0246
      3 C          -2.5039   -0.8004    0.0001 C.ar    1  LIG1       -0.0416
      4 C          -3.2580    0.3743   -0.0001 C.ar    1  LIG1        0.0508
      5 C          -4.6612    0.2715   -0.0003 C.ar    1  LIG1        0.0913
      6 N          -5.3207   -0.9034   -0.0001 N.ar    1  LIG1       -0.2350
      7 H          -1.4054   -0.7607   -0.0009 H       1  LIG1        0.0631
      8 H          -2.5135   -3.1487    0.0004 H       1  LIG1        0.0646
      9 N          -5.8301   -4.1286    0.0003 N.1     1  LIG1       -0.1893
     10 C          -5.2431   -3.1437    0.0002 C.1     1  LIG1        0.1191
     11 C          -2.6846    1.5410   -0.0003 C.1     1  LIG1       -0.0675
     12 C          -2.1548    2.6190   -0.0005 C.1     1  LIG1       -0.1138
     13 H          -1.6828    3.5793   -0.0006 H       1  LIG1        0.1232
     14 C          -5.8086    1.9125   -1.2229 C.ar    1  LIG1        0.1301
     15 C          -6.6141    3.0664   -1.1694 C.ar    1  LIG1       -0.0068
     16 C          -5.4065    1.3366   -0.0004 C.ar    1  LIG1        0.0450
     17 C          -7.0039    3.6236    0.0464 C.ar    1  LIG1        0.0426
     18 H          -6.9355    3.5270   -2.1009 H       1  LIG1        0.0662
     19 C          -5.7953    1.8925    1.2137 C.ar    1  LIG1       -0.0276
     20 C          -6.5961    3.0388    1.2460 C.ar    1  LIG1        0.0362
     21 H          -5.4722    1.4299    2.1428 H       1  LIG1        0.0644
     22 O          -5.4775    1.4388   -2.3874 O.3     1  LIG1       -0.4944
     23 C          -6.4609    0.4927   -2.8150 C.3     1  LIG1        0.0788
     24 H          -6.1881    0.1032   -3.7735 H       1  LIG1        0.0660
     25 H          -6.5169   -0.3080   -2.1074 H       1  LIG1        0.0660
     26 H          -7.4135    0.9750   -2.8839 H       1  LIG1        0.0660
     27 N          -6.9563    3.5541    2.3839 N.pl3   1  LIG1       -0.3574
     28 H          -6.6159    4.4922    2.4477 H       1  LIG1        0.1423
     29 H          -7.9543    3.5566    2.4477 H       1  LIG1        0.1423
     30 C          -7.7481    4.6894    0.0590 C.ar    1  LIG1        0.1542
     31 C          -8.8559    5.1070    0.7670 C.ar    1  LIG1        0.0865
     32 C          -9.1890    6.4276    0.2751 C.ar    1  LIG1        0.0878
     33 C          -8.2622    6.7295   -0.7013 C.ar    1  LIG1        0.1683
     34 O          -7.3631    5.6734   -0.8528 O.2     1  LIG1       -0.4508
     35 C          -9.4949    4.4623    1.6977 C.1     1  LIG1       -0.0646
     36 C         -10.0853    3.8666    2.5576 C.1     1  LIG1       -0.1138
     37 H         -10.6113    3.3360    3.3235 H       1  LIG1        0.1232
     38 C         -10.1761    7.1643    0.6910 C.1     1  LIG1       -0.0646
     39 C         -11.0882    7.8450    1.0753 C.1     1  LIG1       -0.1138
     40 H         -11.9007    8.4513    1.4176 H       1  LIG1        0.1232
     41 C          -8.0415    7.7408   -1.4879 C.ar    1  LIG1        0.0846
     42 C          -8.4737    9.0274   -1.4127 C.ar    1  LIG1       -0.0179
     43 C          -7.9352    9.7261   -2.5408 C.ar    1  LIG1        0.0426
     44 C          -7.1961    8.8361   -3.2547 C.ar    1  LIG1        0.0177
     45 N          -7.2589    7.6193   -2.6139 N.ar    1  LIG1       -0.3571
     46 H          -6.8098    6.7855   -2.9159 H       1  LIG1        0.1655
     47 H          -6.5159    8.9923   -4.3515 H       1  LIG1        0.0819
     48 H          -9.2368    9.5274   -0.4866 H       1  LIG1        0.0652
     49 C          -8.1169   10.9800   -2.8316 C.1     1  LIG1       -0.0682
     50 C          -8.2848   12.1387   -3.1003 C.1     1  LIG1       -0.1139
     51 H          -8.4343   13.1708   -3.3396 H       1  LIG1        0.1232
@<TRIPOS>BOND
     1    47    44    1
     2    24    23    1
     3    51    50    1
     4    44    45   ar
     5    44    43   ar
     6    50    49    3
     7    46    45    1
     8    26    23    1
     9    49    43    1
    10    23    22    1
    11    23    25    1
    12    45    41   ar
    13    43    42   ar
    14    22    14    1
    15    18    15    1
    16    41    42   ar
    17    41    33    1
    18    42    48    1
    19    14    15   ar
    20    14    16   ar
    21    15    17   ar
    22    34    33   ar
    23    34    30   ar
    24    33    32   ar
    25     7     3    1
    26    13    12    1
    27    12    11    3
    28    16     5    1
    29    16    19   ar
    30    11     4    1
    31     5     4   ar
    32     5     6   ar
    33     4     3   ar
    34     6     1   ar
    35     1     2   ar
    36     1    10    1
    37     3     2   ar
    38     2     8    1
    39    10     9    3
    40    17    30    1
    41    17    20   ar
    42    30    31   ar
    43    32    38    1
    44    32    31   ar
    45    38    39    3
    46    31    35    1
    47    39    40    1
    48    19    20   ar
    49    19    21    1
    50    20    27    1
    51    35    36    3
    52    27    28    1
    53    27    29    1
    54    36    37    1
