@<TRIPOS>MOLECULE
mol_data/noopt/geoms/mol2/6de6ie(30)6li(30)13ie(270).out
 57 60 0 0 0
SMALL
GASTEIGER

@<TRIPOS>ATOM
      1 C          -4.5775   -2.0270    0.0001 C.ar    1  LIG1        0.1408
      2 C          -3.1706   -2.0270    0.0001 C.ar    1  LIG1       -0.0246
      3 C          -2.5039   -0.8004    0.0001 C.ar    1  LIG1       -0.0416
      4 C          -3.2580    0.3743   -0.0001 C.ar    1  LIG1        0.0508
      5 C          -4.6612    0.2715   -0.0003 C.ar    1  LIG1        0.0895
      6 N          -5.3207   -0.9034   -0.0001 N.ar    1  LIG1       -0.2351
      7 H          -1.4054   -0.7607   -0.0009 H       1  LIG1        0.0631
      8 H          -2.5135   -3.1487    0.0004 H       1  LIG1        0.0646
      9 N          -5.8301   -4.1286    0.0003 N.1     1  LIG1       -0.1893
     10 C          -5.2431   -3.1437    0.0002 C.1     1  LIG1        0.1191
     11 C          -2.6846    1.5410   -0.0003 C.1     1  LIG1       -0.0675
     12 C          -2.1548    2.6190   -0.0005 C.1     1  LIG1       -0.1138
     13 H          -1.6828    3.5793   -0.0006 H       1  LIG1        0.1232
     14 C          -6.6758    1.3163   -0.6069 C.ar    1  LIG1        0.0482
     15 C          -5.4065    1.3366   -0.0004 C.ar    1  LIG1        0.0238
     16 C          -4.9719    2.5213    0.5969 C.ar    1  LIG1       -0.0333
     17 C          -5.8120    3.6357    0.5685 C.ar    1  LIG1        0.0514
     18 C          -7.0639    3.5171   -0.0625 C.ar    1  LIG1        0.0917
     19 N          -7.4991    2.3820   -0.6435 N.ar    1  LIG1       -0.2498
     20 H          -3.9858    2.5754    1.0796 H       1  LIG1        0.0637
     21 C          -7.1246    0.2367   -1.1760 C.3     1  LIG1       -0.0217
     22 H          -6.5257   -0.5986   -0.8785 H       1  LIG1        0.0293
     23 H          -7.0781    0.3482   -2.2392 H       1  LIG1        0.0293
     24 H          -8.1391    0.0721   -0.8786 H       1  LIG1        0.0293
     25 C          -5.4533    4.7617    1.1103 C.1     1  LIG1       -0.0675
     26 C          -5.1219    5.8021    1.6109 C.1     1  LIG1       -0.1138
     27 H          -4.8266    6.7289    2.0568 H       1  LIG1        0.1232
     28 C          -9.1303    4.3983   -0.7493 C.ar    1  LIG1        0.2245
     29 C          -7.8812    4.5267   -0.1148 C.ar    1  LIG1        0.0633
     30 C          -7.5451    5.7569    0.4531 C.ar    1  LIG1       -0.0424
     31 C          -8.4596    6.8082    0.3687 C.ar    1  LIG1       -0.0222
     32 C          -9.6840    6.5822   -0.2867 C.ar    1  LIG1        0.0941
     33 N         -10.0245    5.4018   -0.8399 N.ar    1  LIG1       -0.2106
     34 H          -6.5777    5.8953    0.9563 H       1  LIG1        0.0629
     35 O          -9.4883    3.2728   -1.2927 O.3     1  LIG1       -0.4792
     36 C         -10.9043    3.2683   -1.4922 C.3     1  LIG1        0.0804
     37 H         -11.1986    2.3420   -1.9396 H       1  LIG1        0.0660
     38 H         -11.3978    3.3818   -0.5495 H       1  LIG1        0.0660
     39 H         -11.1763    4.0779   -2.1368 H       1  LIG1        0.0660
     40 C          -8.1938    7.9732    0.8814 C.3     1  LIG1       -0.0376
     41 H          -9.0169    8.2932    1.4856 H       1  LIG1        0.0278
     42 H          -8.0324    8.6806    0.0950 H       1  LIG1        0.0278
     43 H          -7.3133    7.9045    1.4856 H       1  LIG1        0.0278
     44 C         -10.5679    7.5298   -0.3909 C.ar    1  LIG1        0.0695
     45 C         -11.1114    8.1117   -1.4927 C.ar    1  LIG1       -0.0083
     46 C         -12.0368    9.1058   -1.0389 C.ar    1  LIG1        0.0455
     47 C         -12.0194    9.0865    0.3203 C.ar    1  LIG1        0.0179
     48 N         -11.1211    8.1234    0.7212 N.ar    1  LIG1       -0.3581
     49 H         -10.9065    7.8928    1.6640 H       1  LIG1        0.1654
     50 H         -12.6825    9.7984    1.1826 H       1  LIG1        0.0819
     51 C         -10.8376    7.8180   -2.7295 C.3     1  LIG1       -0.0365
     52 H          -9.7963    7.9823   -2.9130 H       1  LIG1        0.0279
     53 H         -11.4168    8.4394   -3.3802 H       1  LIG1        0.0279
     54 H         -11.0745    6.7908   -2.9130 H       1  LIG1        0.0279
     55 C         -12.7619    9.8846   -1.7857 C.1     1  LIG1       -0.0679
     56 C         -13.4318   10.6042   -2.4757 C.1     1  LIG1       -0.1139
     57 H         -14.0286   11.2452   -3.0904 H       1  LIG1        0.1232
@<TRIPOS>BOND
     1    53    51    1
     2    57    56    1
     3    52    51    1
     4    54    51    1
     5    51    45    1
     6    56    55    3
     7    23    21    1
     8    39    36    1
     9    37    36    1
    10    55    46    1
    11    45    46   ar
    12    45    44   ar
    13    36    35    1
    14    36    38    1
    15    35    28    1
    16    21    24    1
    17    21    22    1
    18    21    14    1
    19    46    47   ar
    20    33    28   ar
    21    33    32   ar
    22    28    29   ar
    23    19    14   ar
    24    19    18   ar
    25    14    15   ar
    26    44    32    1
    27    44    48   ar
    28    32    31   ar
    29    29    18    1
    30    29    30   ar
    31    18    17   ar
    32     7     3    1
    33    13    12    1
    34    12    11    3
    35    15     5    1
    36    15    16   ar
    37     5     4   ar
    38     5     6   ar
    39    11     4    1
    40     4     3   ar
    41     6     1   ar
    42     2     3   ar
    43     2     1   ar
    44     2     8    1
    45     1    10    1
    46    10     9    3
    47    42    40    1
    48    47    48   ar
    49    47    50    1
    50    31    30   ar
    51    31    40    1
    52    30    34    1
    53    17    16   ar
    54    17    25    1
    55    16    20    1
    56    48    49    1
    57    40    43    1
    58    40    41    1
    59    25    26    3
    60    26    27    1
