@<TRIPOS>MOLECULE
mol_data/noopt/geoms/mol2/6de6de6de6de.out
 50 53 0 0 0
SMALL
GASTEIGER

@<TRIPOS>ATOM
      1 C          -4.5775   -2.0270    0.0001 C.ar    1  LIG1        0.1408
      2 C          -3.1706   -2.0270    0.0001 C.ar    1  LIG1       -0.0246
      3 C          -2.5039   -0.8004    0.0001 C.ar    1  LIG1       -0.0416
      4 C          -3.2580    0.3743   -0.0001 C.ar    1  LIG1        0.0508
      5 C          -4.6612    0.2715   -0.0003 C.ar    1  LIG1        0.0905
      6 N          -5.3207   -0.9034   -0.0001 N.ar    1  LIG1       -0.2350
      7 H          -1.4054   -0.7607   -0.0009 H       1  LIG1        0.0631
      8 H          -2.5135   -3.1487    0.0004 H       1  LIG1        0.0646
      9 N          -5.8301   -4.1286    0.0003 N.1     1  LIG1       -0.1893
     10 C          -5.2431   -3.1437    0.0002 C.1     1  LIG1        0.1191
     11 C          -2.6846    1.5410   -0.0003 C.1     1  LIG1       -0.0675
     12 C          -2.1548    2.6190   -0.0005 C.1     1  LIG1       -0.1138
     13 H          -1.6828    3.5793   -0.0006 H       1  LIG1        0.1232
     14 C          -6.8088    1.2233   -0.0003 C.ar    1  LIG1        0.1500
     15 C          -5.4065    1.3366   -0.0004 C.ar    1  LIG1        0.0386
     16 C          -4.8408    2.6129   -0.0003 C.ar    1  LIG1       -0.0323
     17 C          -5.6871    3.7231   -0.0003 C.ar    1  LIG1        0.0514
     18 C          -7.0774    3.5076   -0.0004 C.ar    1  LIG1        0.0906
     19 N          -7.6401    2.2834   -0.0003 N.ar    1  LIG1       -0.2344
     20 H          -3.7491    2.7410   -0.0014 H       1  LIG1        0.0638
     21 N          -7.8881   -0.9724   -0.0003 N.1     1  LIG1       -0.1893
     22 C          -7.3823    0.0566   -0.0003 C.1     1  LIG1        0.1198
     23 C          -5.2095    4.9322   -0.0004 C.1     1  LIG1       -0.0675
     24 C          -4.7682    6.0494   -0.0004 C.1     1  LIG1       -0.1138
     25 H          -4.3752    7.0446   -0.0005 H       1  LIG1        0.1232
     26 C          -9.2948    4.2833   -0.0001 C.ar    1  LIG1        0.1500
     27 C          -7.9061    4.5092   -0.0003 C.ar    1  LIG1        0.0386
     28 C          -7.4450    5.8270   -0.0001 C.ar    1  LIG1       -0.0323
     29 C          -8.3780    6.8653    0.0002 C.ar    1  LIG1        0.0514
     30 C          -9.7465    6.5385    0.0002 C.ar    1  LIG1        0.0906
     31 N         -10.2087    5.2730    0.0002 N.ar    1  LIG1       -0.2344
     32 H          -6.3672    6.0425   -0.0012 H       1  LIG1        0.0638
     33 N         -10.1937    2.0078   -0.0002 N.1     1  LIG1       -0.1893
     34 C          -9.7724    3.0742   -0.0002 C.1     1  LIG1        0.1198
     35 C          -7.9994    8.1090    0.0002 C.1     1  LIG1       -0.0675
     36 C          -7.6495    9.2581    0.0002 C.1     1  LIG1       -0.1138
     37 H          -7.3379   10.2817    0.0002 H       1  LIG1        0.1232
     38 C         -12.0191    7.1331    0.0008 C.ar    1  LIG1        0.1493
     39 C         -10.6531    7.4702    0.0005 C.ar    1  LIG1        0.0386
     40 C         -10.2997    8.8208    0.0008 C.ar    1  LIG1       -0.0329
     41 C         -11.3132    9.7806    0.0012 C.ar    1  LIG1        0.0435
     42 C         -12.6510    9.3446    0.0013 C.ar    1  LIG1        0.0444
     43 N         -13.0098    8.0460    0.0012 N.ar    1  LIG1       -0.2428
     44 H          -9.2427    9.1225   -0.0004 H       1  LIG1        0.0638
     45 H         -13.6297   10.2002    0.0018 H       1  LIG1        0.0842
     46 N         -12.7318    4.7926    0.0004 N.1     1  LIG1       -0.1893
     47 C         -12.3978    5.8895    0.0006 C.1     1  LIG1        0.1198
     48 C         -11.0360   11.0507    0.0014 C.1     1  LIG1       -0.0681
     49 C         -10.7799   12.2243    0.0015 C.1     1  LIG1       -0.1139
     50 H         -10.5517   13.2697    0.0016 H       1  LIG1        0.1232
@<TRIPOS>BOND
     1    20    16    1
     2    32    28    1
     3     7     3    1
     4    13    12    1
     5    25    24    1
     6    12    11    3
     7    44    40    1
     8    24    23    3
     9    15     5    1
    10    15    14   ar
    11    15    16   ar
    12    18    19   ar
    13    18    27    1
    14    18    17   ar
    15    23    17    1
    16     5     6   ar
    17     5     4   ar
    18    11     4    1
    19    14    22    1
    20    14    19   ar
    21    16    17   ar
    22    22    21    3
    23    27    26   ar
    24    27    28   ar
    25    33    34    3
    26    34    26    1
    27     6     1   ar
    28     4     3   ar
    29    26    31   ar
    30    28    29   ar
    31     1     2   ar
    32     1    10    1
    33     3     2   ar
    34     2     8    1
    35    31    30   ar
    36    30    29   ar
    37    30    39    1
    38    29    35    1
    39    35    36    3
    40    10     9    3
    41    36    37    1
    42    46    47    3
    43    39    38   ar
    44    39    40   ar
    45    47    38    1
    46    38    43   ar
    47    40    41   ar
    48    43    42   ar
    49    41    42   ar
    50    41    48    1
    51    42    45    1
    52    48    49    3
    53    49    50    1
