@<TRIPOS>MOLECULE
mol_data/noopt/geoms/mol2/6de6de.out
 26 27 0 0 0
SMALL
GASTEIGER

@<TRIPOS>ATOM
      1 C          -4.5775   -2.0270    0.0001 C.ar    1  LIG1        0.1408
      2 C          -3.1706   -2.0270    0.0001 C.ar    1  LIG1       -0.0246
      3 C          -2.5039   -0.8004    0.0001 C.ar    1  LIG1       -0.0416
      4 C          -3.2580    0.3743   -0.0001 C.ar    1  LIG1        0.0508
      5 C          -4.6612    0.2715   -0.0003 C.ar    1  LIG1        0.0905
      6 N          -5.3207   -0.9034   -0.0001 N.ar    1  LIG1       -0.2350
      7 H          -1.4054   -0.7607   -0.0009 H       1  LIG1        0.0631
      8 H          -2.5135   -3.1487    0.0004 H       1  LIG1        0.0646
      9 N          -5.8301   -4.1286    0.0003 N.1     1  LIG1       -0.1893
     10 C          -5.2431   -3.1437    0.0002 C.1     1  LIG1        0.1191
     11 C          -2.6846    1.5410   -0.0003 C.1     1  LIG1       -0.0675
     12 C          -2.1548    2.6190   -0.0005 C.1     1  LIG1       -0.1138
     13 H          -1.6828    3.5793   -0.0006 H       1  LIG1        0.1232
     14 C          -6.8088    1.2233   -0.0003 C.ar    1  LIG1        0.1493
     15 C          -5.4065    1.3366   -0.0004 C.ar    1  LIG1        0.0386
     16 C          -4.8408    2.6129   -0.0003 C.ar    1  LIG1       -0.0329
     17 C          -5.6871    3.7231   -0.0003 C.ar    1  LIG1        0.0435
     18 C          -7.0774    3.5076   -0.0004 C.ar    1  LIG1        0.0444
     19 N          -7.6401    2.2834   -0.0003 N.ar    1  LIG1       -0.2428
     20 H          -3.7491    2.7410   -0.0014 H       1  LIG1        0.0638
     21 H          -7.9061    4.5092   -0.0003 H       1  LIG1        0.0842
     22 N          -7.8881   -0.9724   -0.0003 N.1     1  LIG1       -0.1893
     23 C          -7.3823    0.0566   -0.0003 C.1     1  LIG1        0.1198
     24 C          -5.2095    4.9322   -0.0004 C.1     1  LIG1       -0.0681
     25 C          -4.7682    6.0494   -0.0004 C.1     1  LIG1       -0.1139
     26 H          -4.3752    7.0446   -0.0005 H       1  LIG1        0.1232
@<TRIPOS>BOND
     1    20    16    1
     2     7     3    1
     3    13    12    1
     4    26    25    1
     5    12    11    3
     6    25    24    3
     7    15     5    1
     8    15    14   ar
     9    15    16   ar
    10    18    19   ar
    11    18    21    1
    12    18    17   ar
    13    24    17    1
    14     5     6   ar
    15     5     4   ar
    16    11     4    1
    17    14    23    1
    18    14    19   ar
    19    16    17   ar
    20    23    22    3
    21     6     1   ar
    22     4     3   ar
    23     1     2   ar
    24     1    10    1
    25     3     2   ar
    26     2     8    1
    27    10     9    3
