@<TRIPOS>MOLECULE
mol_data/noopt/geoms/mol2/6df13fi(220)12if(230)13aa(50).out
 44 47 0 0 0
SMALL
GASTEIGER

@<TRIPOS>ATOM
      1 C          -4.5775   -2.0270    0.0001 C.ar    1  LIG1        0.1410
      2 C          -3.1706   -2.0270    0.0001 C.ar    1  LIG1       -0.0223
      3 C          -2.5039   -0.8004    0.0001 C.ar    1  LIG1       -0.0153
      4 C          -3.2580    0.3743   -0.0001 C.ar    1  LIG1        0.1444
      5 C          -4.6612    0.2715   -0.0003 C.ar    1  LIG1        0.1334
      6 N          -5.3207   -0.9034   -0.0001 N.ar    1  LIG1       -0.2311
      7 H          -1.4054   -0.7607   -0.0009 H       1  LIG1        0.0655
      8 H          -2.5135   -3.1487    0.0004 H       1  LIG1        0.0647
      9 N          -5.8301   -4.1286    0.0003 N.1     1  LIG1       -0.1893
     10 C          -5.2431   -3.1437    0.0002 C.1     1  LIG1        0.1191
     11 O          -2.6846    1.5410   -0.0003 O.3     1  LIG1       -0.5046
     12 H          -3.3554    2.2278   -0.0003 H       1  LIG1        0.2922
     13 C          -5.4065    1.3366   -0.0004 C.ar    1  LIG1        0.1113
     14 C          -6.5833    1.5896   -0.6322 C.ar    1  LIG1        0.1472
     15 C          -6.9740    2.9242   -0.2905 C.ar    1  LIG1        0.0200
     16 C          -6.0196    3.4275    0.5365 C.ar    1  LIG1        0.0895
     17 N          -5.0579    2.4590    0.7164 N.ar    1  LIG1       -0.3473
     18 H          -4.2417    2.5548    1.2755 H       1  LIG1        0.1662
     19 O          -7.2310    0.7689   -1.4049 O.3     1  LIG1       -0.5043
     20 H          -6.6803    0.0060   -1.5954 H       1  LIG1        0.2922
     21 C          -8.0436    3.5436   -0.6942 C.3     1  LIG1       -0.0341
     22 H          -8.9104    3.0360   -0.3255 H       1  LIG1        0.0279
     23 H          -8.0660    3.5565   -1.7640 H       1  LIG1        0.0279
     24 H          -8.0347    4.5480   -0.3255 H       1  LIG1        0.0279
     25 C          -5.9276    4.5912    1.1088 C.ar    1  LIG1        0.1587
     26 C          -6.5010    5.8307    0.9143 C.ar    1  LIG1        0.0389
     27 C          -5.9473    6.7071    1.9255 C.ar    1  LIG1        0.1677
     28 C          -5.0720    5.9445    2.6711 C.ar    1  LIG1        0.1932
     29 O          -5.0426    4.6362    2.1869 O.2     1  LIG1       -0.4478
     30 C          -7.3698    6.1726    0.0093 C.3     1  LIG1       -0.0325
     31 H          -8.2548    5.5819    0.1233 H       1  LIG1        0.0280
     32 H          -6.9548    6.0092   -0.9633 H       1  LIG1        0.0280
     33 H          -7.6149    7.2079    0.1233 H       1  LIG1        0.0280
     34 O          -6.2366    7.9652    2.0785 O.3     1  LIG1       -0.5030
     35 H          -7.1899    8.0725    2.1163 H       1  LIG1        0.2923
     36 C          -4.2928    6.1587    3.6894 C.ar    1  LIG1        0.0858
     37 C          -4.1563    5.4729    4.8552 C.ar    1  LIG1       -0.0333
     38 C          -3.1547    6.1415    5.6299 C.ar    1  LIG1       -0.0437
     39 C          -2.7218    7.2055    4.9028 C.ar    1  LIG1        0.0023
     40 N          -3.4163    7.2200    3.7142 N.ar    1  LIG1       -0.3582
     41 H          -3.3025    7.8900    2.9889 H       1  LIG1        0.1654
     42 H          -1.8268    8.1072    5.1780 H       1  LIG1        0.0807
     43 H          -4.8165    4.4076    5.2003 H       1  LIG1        0.0640
     44 H          -2.7339    5.7974    6.8108 H       1  LIG1        0.0633
@<TRIPOS>BOND
     1    23    21    1
     2    20    19    1
     3    19    14    1
     4    32    30    1
     5    21    24    1
     6    21    22    1
     7    21    15    1
     8    14    15   ar
     9    14    13   ar
    10    15    16   ar
    11     7     3    1
    12    13     5    1
    13    13    17   ar
    14    12    11    1
    15    11     4    1
    16     5     6   ar
    17     5     4   ar
    18     6     1   ar
    19     4     3   ar
    20     1     2   ar
    21     1    10    1
    22     3     2   ar
    23     2     8    1
    24    10     9    3
    25    30    33    1
    26    30    31    1
    27    30    26    1
    28    16    17   ar
    29    16    25    1
    30    17    18    1
    31    26    25   ar
    32    26    27   ar
    33    25    29   ar
    34    27    34    1
    35    27    28   ar
    36    34    35    1
    37    29    28   ar
    38    28    36    1
    39    41    40    1
    40    36    40   ar
    41    36    37   ar
    42    40    39   ar
    43    37    43    1
    44    37    38   ar
    45    39    42    1
    46    39    38   ar
    47    38    44    1
