@<TRIPOS>MOLECULE
mol_data/noopt/geoms/mol2/6df12da(80)6hi(210)13ai(120).out
 46 49 0 0 0
SMALL
GASTEIGER

@<TRIPOS>ATOM
      1 C          -4.5775   -2.0270    0.0001 C.ar    1  LIG1        0.1411
      2 C          -3.1706   -2.0270    0.0001 C.ar    1  LIG1       -0.0223
      3 C          -2.5039   -0.8004    0.0001 C.ar    1  LIG1       -0.0152
      4 C          -3.2580    0.3743   -0.0001 C.ar    1  LIG1        0.1459
      5 C          -4.6612    0.2715   -0.0003 C.ar    1  LIG1        0.1499
      6 N          -5.3207   -0.9034   -0.0001 N.ar    1  LIG1       -0.2295
      7 H          -1.4054   -0.7607   -0.0009 H       1  LIG1        0.0655
      8 H          -2.5135   -3.1487    0.0004 H       1  LIG1        0.0647
      9 N          -5.8301   -4.1286    0.0003 N.1     1  LIG1       -0.1893
     10 C          -5.2431   -3.1437    0.0002 C.1     1  LIG1        0.1191
     11 O          -2.6846    1.5410   -0.0003 O.3     1  LIG1       -0.5045
     12 H          -3.3554    2.2278   -0.0003 H       1  LIG1        0.2922
     13 C          -5.4065    1.3366   -0.0004 C.ar    1  LIG1        0.1747
     14 C          -5.8139    2.2518    0.9480 C.ar    1  LIG1        0.0996
     15 C          -6.6541    3.2123    0.2635 C.ar    1  LIG1        0.0024
     16 C          -6.7043    2.8201   -1.0584 C.ar    1  LIG1        0.1403
     17 O          -5.9428    1.6661   -1.2460 O.2     1  LIG1       -0.4517
     18 N          -5.2555    2.2896    3.3297 N.1     1  LIG1       -0.1907
     19 C          -5.5172    2.2719    2.2135 C.1     1  LIG1        0.1030
     20 H          -7.2361    4.2368    0.8127 H       1  LIG1        0.0668
     21 C          -7.3500    4.6482   -2.3849 C.ar    1  LIG1        0.1276
     22 C          -7.2804    3.2653   -2.1354 C.ar    1  LIG1        0.0571
     23 C          -7.8416    2.3906   -3.0675 C.ar    1  LIG1       -0.0428
     24 C          -8.4481    2.9216   -4.2072 C.ar    1  LIG1       -0.0222
     25 C          -8.4679    4.3192   -4.3679 C.ar    1  LIG1        0.0921
     26 N          -7.9312    5.1776   -3.4788 N.ar    1  LIG1       -0.2300
     27 H          -7.8073    1.3038   -2.9062 H       1  LIG1        0.0629
     28 N          -6.8420    5.5022   -1.5467 N.pl3   1  LIG1       -0.3426
     29 H          -5.8546    5.5649   -1.6921 H       1  LIG1        0.1437
     30 H          -7.2580    6.3998   -1.6921 H       1  LIG1        0.1437
     31 C          -8.9851    2.1491   -5.1047 C.3     1  LIG1       -0.0376
     32 H          -8.6138    1.1526   -4.9860 H       1  LIG1        0.0278
     33 H          -8.7349    2.5089   -6.0809 H       1  LIG1        0.0278
     34 H         -10.0485    2.1501   -4.9860 H       1  LIG1        0.0278
     35 C          -9.0208    4.8612   -5.4122 C.ar    1  LIG1        0.0655
     36 C         -10.2832    5.3295   -5.5987 C.ar    1  LIG1       -0.0320
     37 C         -10.3624    5.8232   -6.9405 C.ar    1  LIG1       -0.0325
     38 C          -9.1444    5.6365   -7.5145 C.ar    1  LIG1        0.0051
     39 N          -8.3201    5.0474   -6.5825 N.ar    1  LIG1       -0.3592
     40 H          -7.3697    4.7969   -6.7307 H       1  LIG1        0.1654
     41 H          -8.7232    5.9207   -8.7111 H       1  LIG1        0.0809
     42 H         -11.2403    5.3265   -4.7189 H       1  LIG1        0.0642
     43 C         -11.4051    6.3534   -7.5086 C.3     1  LIG1       -0.0383
     44 H         -12.2835    5.8199   -7.2107 H       1  LIG1        0.0278
     45 H         -11.2982    6.2990   -8.5719 H       1  LIG1        0.0278
     46 H         -11.4914    7.3774   -7.2107 H       1  LIG1        0.0278
@<TRIPOS>BOND
     1    41    38    1
     2    45    43    1
     3    38    37   ar
     4    38    39   ar
     5    43    46    1
     6    43    44    1
     7    43    37    1
     8    37    36   ar
     9    40    39    1
    10    39    35   ar
    11    33    31    1
    12    36    35   ar
    13    36    42    1
    14    35    25    1
    15    31    34    1
    16    31    32    1
    17    31    24    1
    18    25    24   ar
    19    25    26   ar
    20    24    23   ar
    21    26    21   ar
    22    23    27    1
    23    23    22   ar
    24    21    22   ar
    25    21    28    1
    26    22    16    1
    27    30    28    1
    28    29    28    1
    29    17    16   ar
    30    17    13   ar
    31    16    15   ar
    32     7     3    1
    33    13     5    1
    34    13    14   ar
    35    12    11    1
    36    11     4    1
    37     5     6   ar
    38     5     4   ar
    39     6     1   ar
    40     4     3   ar
    41     3     2   ar
    42     1     2   ar
    43     1    10    1
    44     2     8    1
    45    10     9    3
    46    15    20    1
    47    15    14   ar
    48    14    19    1
    49    19    18    3
