@<TRIPOS>MOLECULE
mol_data/noopt/geoms/mol2/6df12de13hf6af-.out
 44 47 0 0 0
SMALL
GASTEIGER

@<TRIPOS>ATOM
      1 C          -4.5775   -2.0270    0.0001 C.ar    1  LIG1        0.1411
      2 C          -3.1706   -2.0270    0.0001 C.ar    1  LIG1       -0.0223
      3 C          -2.5039   -0.8004    0.0001 C.ar    1  LIG1       -0.0152
      4 C          -3.2580    0.3743   -0.0001 C.ar    1  LIG1        0.1459
      5 C          -4.6612    0.2715   -0.0003 C.ar    1  LIG1        0.1499
      6 N          -5.3207   -0.9034   -0.0001 N.ar    1  LIG1       -0.2295
      7 H          -1.4054   -0.7607   -0.0009 H       1  LIG1        0.0655
      8 H          -2.5135   -3.1487    0.0004 H       1  LIG1        0.0647
      9 N          -5.8301   -4.1286    0.0003 N.1     1  LIG1       -0.1893
     10 C          -5.2431   -3.1437    0.0002 C.1     1  LIG1        0.1191
     11 O          -2.6846    1.5410   -0.0003 O.3     1  LIG1       -0.5045
     12 H          -3.3554    2.2278   -0.0003 H       1  LIG1        0.2922
     13 C          -5.4065    1.3366   -0.0004 C.ar    1  LIG1        0.1760
     14 C          -5.1776    2.6970   -0.0005 C.ar    1  LIG1        0.1151
     15 C          -6.4770    3.3362   -0.0006 C.ar    1  LIG1        0.0899
     16 C          -7.4141    2.3236   -0.0007 C.ar    1  LIG1        0.1704
     17 O          -6.7786    1.0814   -0.0006 O.2     1  LIG1       -0.4490
     18 N          -3.0212    3.8527   -0.0003 N.1     1  LIG1       -0.1907
     19 C          -4.0318    3.3111   -0.0004 C.1     1  LIG1        0.1043
     20 C          -6.6905    4.6186   -0.0007 C.1     1  LIG1       -0.0645
     21 C          -6.8877    5.8035   -0.0007 C.1     1  LIG1       -0.1138
     22 H          -7.0635    6.8590   -0.0008 H       1  LIG1        0.1232
     23 C          -8.7127    2.2633   -0.0007 C.ar    1  LIG1        0.1084
     24 C          -9.6417    3.2556    0.0155 C.ar    1  LIG1        0.0960
     25 C         -10.9317    2.6340    0.0077 C.ar    1  LIG1        0.1636
     26 C         -10.7343    1.2891   -0.0146 C.ar    1  LIG1        0.0925
     27 N          -9.3772    1.0578   -0.0194 N.ar    1  LIG1       -0.3473
     28 H          -8.9457    0.1625   -0.0346 H       1  LIG1        0.1662
     29 N          -9.3996    4.5328    0.0359 N.pl3   1  LIG1       -0.3534
     30 H          -8.5340    4.7154   -0.4302 H       1  LIG1        0.1425
     31 H         -10.1384    5.0195   -0.4302 H       1  LIG1        0.1425
     32 O         -12.0816    3.2404    0.0194 O.3     1  LIG1       -0.5031
     33 H         -12.7871    2.5893    0.0223 H       1  LIG1        0.2923
     34 C         -11.1454   -1.0233   -0.0581 C.ar    1  LIG1        0.0370
     35 C         -11.5905    0.3110   -0.0292 C.ar    1  LIG1        0.0235
     36 C         -12.9650    0.5552   -0.0162 C.ar    1  LIG1       -0.0080
     37 C         -13.8408   -0.5317   -0.0327 C.ar    1  LIG1        0.1355
     38 C         -13.2993   -1.8299   -0.0617 C.ar    1  LIG1        0.0690
     39 N         -11.9762   -2.0837   -0.0743 N.ar    1  LIG1       -0.2590
     40 H         -13.3502    1.5845    0.0054 H       1  LIG1        0.0661
     41 H         -14.0739   -2.8738   -0.0778 H       1  LIG1        0.0867
     42 H          -9.8755   -1.3012   -0.0710 H       1  LIG1        0.0836
     43 O         -15.1290   -0.3570   -0.0218 O.3     1  LIG1       -0.5052
     44 H         -15.5681   -1.2107   -0.0192 H       1  LIG1        0.2922
@<TRIPOS>BOND
     1    31    29    1
     2    30    29    1
     3    41    38    1
     4    39    38   ar
     5    39    34   ar
     6    42    34    1
     7    38    37   ar
     8    34    35   ar
     9    28    27    1
    10    37    43    1
    11    37    36   ar
    12    35    36   ar
    13    35    26    1
    14    43    44    1
    15    27    26   ar
    16    27    23   ar
    17    36    40    1
    18    26    25   ar
    19     7     3    1
    20    22    21    1
    21    21    20    3
    22    23    16    1
    23    23    24   ar
    24    20    15    1
    25    16    17   ar
    26    16    15   ar
    27    17    13   ar
    28    15    14   ar
    29    14    13   ar
    30    14    19    1
    31    13     5    1
    32    19    18    3
    33    12    11    1
    34     5     4   ar
    35     5     6   ar
    36    11     4    1
    37     4     3   ar
    38     6     1   ar
    39     2     3   ar
    40     2     1   ar
    41     2     8    1
    42     1    10    1
    43    10     9    3
    44    25    24   ar
    45    25    32    1
    46    24    29    1
    47    32    33    1
