@<TRIPOS>MOLECULE
mol_data/noopt/geoms/mol2/6df13ie13ff-6da4fd12hf4ef6de-.out
 93 99 0 0 0
SMALL
GASTEIGER

@<TRIPOS>ATOM
      1 C          -4.5775   -2.0270    0.0001 C.ar    1  LIG1        0.1408
      2 C          -3.1706   -2.0270    0.0001 C.ar    1  LIG1       -0.0252
      3 C          -2.5039   -0.8004    0.0001 C.ar    1  LIG1       -0.0492
      4 C          -3.2580    0.3743   -0.0001 C.ar    1  LIG1        0.0117
      5 C          -4.6612    0.2715   -0.0003 C.ar    1  LIG1        0.0966
      6 N          -5.3207   -0.9034   -0.0001 N.ar    1  LIG1       -0.2343
      7 H          -1.4054   -0.7607   -0.0009 H       1  LIG1        0.0625
      8 H          -2.5135   -3.1487    0.0004 H       1  LIG1        0.0646
      9 N          -5.8301   -4.1286    0.0003 N.1     1  LIG1       -0.1893
     10 C          -5.2431   -3.1437    0.0002 C.1     1  LIG1        0.1191
     11 O          -2.6846    1.5410   -0.0003 O.3     2  HOH2       -0.2528
     12 H          -3.3554    2.2278   -0.0003 H       0  HOH0        0.2528
     13 C          -5.4065    1.3366   -0.0004 C.ar    1  LIG1        0.0702
     14 C          -5.0646    2.6523   -0.0008 C.ar    1  LIG1       -0.0076
     15 C          -6.2797    3.4100    0.0004 C.ar    1  LIG1        0.0550
     16 C          -7.3108    2.5240   -0.0003 C.ar    1  LIG1        0.0829
     17 N          -6.7806    1.2535   -0.0003 N.ar    1  LIG1       -0.3505
     18 H          -7.3066    0.4100   -0.0008 H       1  LIG1        0.1660
     19 C          -3.8556    3.1309   -0.0007 C.3     1  LIG1       -0.0365
     20 H          -3.8455    4.0745    0.5037 H       1  LIG1        0.0279
     21 H          -3.5239    3.2623   -1.0095 H       1  LIG1        0.0279
     22 H          -3.2024    2.4498    0.5037 H       1  LIG1        0.0279
     23 C          -6.3821    4.7060    0.0014 C.1     1  LIG1       -0.0672
     24 C          -6.4767    5.9034    0.0024 C.1     1  LIG1       -0.1138
     25 H          -6.5610    6.9701    0.0032 H       1  LIG1        0.1232
     26 C          -8.5953    2.7244    0.0002 C.ar    1  LIG1        0.1103
     27 C          -9.3072    3.8825    0.0002 C.ar    1  LIG1        0.1863
     28 C         -10.6954    3.5311    0.0020 C.ar    1  LIG1        0.1849
     29 C         -10.7707    2.1738    0.0013 C.ar    1  LIG1        0.0955
     30 N          -9.4873    1.6759    0.0007 N.ar    1  LIG1       -0.3470
     31 H          -9.2434    0.7123   -0.0000 H       1  LIG1        0.1662
     32 O          -8.8148    5.0857    0.0001 O.3     1  LIG1       -0.5019
     33 H          -9.5309    5.7250    0.0001 H       1  LIG1        0.2924
     34 O         -11.7009    4.3552    0.0035 O.3     1  LIG1       -0.5019
     35 H         -12.5223    3.8583    0.0039 H       1  LIG1        0.2924
     36 C         -11.6357   -0.0103    0.0028 C.ar    1  LIG1        0.1499
     37 C         -11.8052    1.3864    0.0021 C.ar    1  LIG1        0.0379
     38 C         -13.1031    1.9005    0.0028 C.ar    1  LIG1       -0.0478
     39 C         -14.1784    1.0104    0.0039 C.ar    1  LIG1       -0.0349
     40 C         -13.9074   -0.3702    0.0042 C.ar    1  LIG1        0.0760
     41 N         -12.6616   -0.8834    0.0038 N.ar    1  LIG1       -0.2356
     42 H         -13.2748    2.9862    0.0013 H       1  LIG1        0.0626
     43 N          -9.3986   -1.0007    0.0019 N.1     1  LIG1       -0.1893
     44 C         -10.4470   -0.5365    0.0023 C.1     1  LIG1        0.1198
     45 H         -15.4057    1.4392    0.0043 H       1  LIG1        0.0639
     46 C         -16.2142   -0.7975    0.0066 C.ar    1  LIG1        0.1268
     47 C         -17.2259   -1.7772    0.0093 C.ar    1  LIG1       -0.0076
     48 C         -14.8750   -1.2383    0.0053 C.ar    1  LIG1        0.0430
     49 C         -16.9199   -3.1363    0.0100 C.ar    1  LIG1        0.0401
     50 H         -18.2660   -1.4590    0.0106 H       1  LIG1        0.0662
     51 C         -14.5690   -2.5949    0.0060 C.ar    1  LIG1       -0.0310
     52 C         -15.5882   -3.5530    0.0082 C.ar    1  LIG1        0.0633
     53 H         -13.5285   -2.9096    0.0050 H       1  LIG1        0.0638
     54 O         -16.5618    0.4552    0.0058 O.3     1  LIG1       -0.5061
     55 H         -17.5195    0.5219    0.0056 H       1  LIG1        0.2922
     56 N         -15.0385   -5.9370    0.0097 N.1     1  LIG1       -0.1908
     57 C         -15.2961   -4.8197    0.0090 C.1     1  LIG1        0.0999
     58 C         -17.8791   -4.0138    0.0124 C.ar    1  LIG1        0.1613
     59 C         -19.2577   -3.9638    0.0142 C.ar    1  LIG1        0.1138
     60 C         -19.7225   -5.3352    0.0165 C.ar    1  LIG1        0.1845
     61 C         -18.5966   -6.1327    0.0158 C.ar    1  LIG1        0.1801
     62 O         -17.4476   -5.3410    0.0132 O.2     1  LIG1       -0.4491
     63 N         -20.0156   -2.9075    0.0140 N.pl3   1  LIG1       -0.3522
     64 H         -19.5464   -2.1608   -0.4575 H       1  LIG1        0.1425
     65 H         -20.8732   -3.1127   -0.4575 H       1  LIG1        0.1425
     66 O         -20.9662   -5.7137    0.0186 O.3     1  LIG1       -0.5020
     67 H         -21.0093   -6.6727    0.0192 H       1  LIG1        0.2924
     68 C         -19.4477   -8.3189    0.0186 C.ar    1  LIG1        0.0362
     69 C         -19.1474   -9.6948    0.0214 C.ar    1  LIG1       -0.0343
     70 C         -18.3679   -7.4124    0.0171 C.ar    1  LIG1        0.0398
     71 C         -17.8309  -10.1502    0.0222 C.ar    1  LIG1        0.0275
     72 H         -19.9656  -10.4115    0.0228 H       1  LIG1        0.0637
     73 C         -17.0534   -7.8665    0.0179 C.ar    1  LIG1       -0.0076
     74 C         -16.7755   -9.2374    0.0204 C.ar    1  LIG1        0.1254
     75 H         -16.2381   -7.1476    0.0169 H       1  LIG1        0.0662
     76 C         -20.6957   -7.9549    0.0177 C.1     1  LIG1       -0.0689
     77 C         -21.8489   -7.6186    0.0169 C.1     1  LIG1       -0.1139
     78 H         -22.8761   -7.3190    0.0161 H       1  LIG1        0.1232
     79 O         -15.5447   -9.6560    0.0213 O.3     1  LIG1       -0.5061
     80 H         -14.9500   -8.9025    0.0215 H       1  LIG1        0.2922
     81 C         -16.2653  -11.9014    0.0052 C.ar    1  LIG1        0.1479
     82 C         -17.5899  -11.4277    0.0248 C.ar    1  LIG1        0.0227
     83 C         -18.6305  -12.3581    0.0472 C.ar    1  LIG1       -0.0343
     84 C         -18.3159  -13.7181    0.0491 C.ar    1  LIG1        0.0434
     85 C         -16.9602  -14.0938    0.0283 C.ar    1  LIG1        0.0444
     86 N         -15.9438  -13.2097    0.0067 N.ar    1  LIG1       -0.2428
     87 H         -19.6781  -12.0256    0.0620 H       1  LIG1        0.0637
     88 H         -16.6171  -15.3477    0.0292 H       1  LIG1        0.0842
     89 N         -14.3785  -10.3444   -0.0346 N.1     1  LIG1       -0.1893
     90 C         -15.2627  -11.0741   -0.0159 C.1     1  LIG1        0.1197
     91 C         -19.2485  -14.6236    0.0694 C.1     1  LIG1       -0.0681
     92 C         -20.1102  -15.4602    0.0882 C.1     1  LIG1       -0.1139
     93 H         -20.8778  -16.2055    0.1049 H       1  LIG1        0.1232
@<TRIPOS>BOND
     1    21    19    1
     2    65    63    1
     3    64    63    1
     4    89    90    3
     5    90    81    1
     6     7     3    1
     7    14    19    1
     8    14    13   ar
     9    14    15   ar
    10    18    17    1
    11    19    22    1
    12    19    20    1
    13    13     5    1
    14    13    17   ar
    15    12    11    1
    16     5     6   ar
    17     5     4   ar
    18    17    16   ar
    19    16    26    1
    20    16    15   ar
    21     6     1   ar
    22     4     3   ar
    23    31    30    1
    24     3     2   ar
    25     2     1   ar
    26     2     8    1
    27     1    10    1
    28    33    32    1
    29    32    27    1
    30    27    26   ar
    31    27    28   ar
    32    10     9    3
    33    26    30   ar
    34    15    23    1
    35    30    29   ar
    36    29    28   ar
    37    29    37    1
    38    42    38    1
    39    23    24    3
    40    43    44    3
    41    28    34    1
    42    37    36   ar
    43    37    38   ar
    44    44    36    1
    45    24    25    1
    46    36    41   ar
    47    38    39   ar
    48    34    35    1
    49    41    40   ar
    50    39    40   ar
    51    39    45    1
    52    40    48    1
    53    53    51    1
    54    81    86   ar
    55    81    82   ar
    56    48    51   ar
    57    48    46   ar
    58    55    54    1
    59    54    46    1
    60    51    52   ar
    61    46    47   ar
    62    86    85   ar
    63    52    57    1
    64    52    49   ar
    65    57    56    3
    66    47    49   ar
    67    47    50    1
    68    49    58    1
    69    58    62   ar
    70    58    59   ar
    71    62    61   ar
    72    63    59    1
    73    59    60   ar
    74    61    60   ar
    75    61    70    1
    76    78    77    1
    77    60    66    1
    78    75    73    1
    79    77    76    3
    80    70    73   ar
    81    70    68   ar
    82    76    68    1
    83    73    74   ar
    84    68    69   ar
    85    66    67    1
    86    74    79    1
    87    74    71   ar
    88    79    80    1
    89    69    71   ar
    90    69    72    1
    91    71    82    1
    92    82    83   ar
    93    85    88    1
    94    85    84   ar
    95    83    84   ar
    96    83    87    1
    97    84    91    1
    98    91    92    3
    99    92    93    1
