@<TRIPOS>MOLECULE
mol_data/noopt/geoms/mol2/6df13dh6ha4fi.out
 49 52 0 0 0
SMALL
GASTEIGER

@<TRIPOS>ATOM
      1 C          -4.5775   -2.0270    0.0001 C.ar    1  LIG1        0.1410
      2 C          -3.1706   -2.0270    0.0001 C.ar    1  LIG1       -0.0223
      3 C          -2.5039   -0.8004    0.0001 C.ar    1  LIG1       -0.0153
      4 C          -3.2580    0.3743   -0.0001 C.ar    1  LIG1        0.1443
      5 C          -4.6612    0.2715   -0.0003 C.ar    1  LIG1        0.1311
      6 N          -5.3207   -0.9034   -0.0001 N.ar    1  LIG1       -0.2312
      7 H          -1.4054   -0.7607   -0.0009 H       1  LIG1        0.0655
      8 H          -2.5135   -3.1487    0.0004 H       1  LIG1        0.0647
      9 N          -5.8301   -4.1286    0.0003 N.1     1  LIG1       -0.1893
     10 C          -5.2431   -3.1437    0.0002 C.1     1  LIG1        0.1191
     11 O          -2.6846    1.5410   -0.0003 O.3     1  LIG1       -0.5046
     12 H          -3.3554    2.2278   -0.0003 H       1  LIG1        0.2922
     13 C          -5.4065    1.3366   -0.0004 C.ar    1  LIG1        0.0884
     14 C          -5.0646    2.6523   -0.0008 C.ar    1  LIG1        0.0998
     15 C          -6.2797    3.4100    0.0004 C.ar    1  LIG1        0.0686
     16 C          -7.3108    2.5240   -0.0003 C.ar    1  LIG1        0.0725
     17 N          -6.7806    1.2535   -0.0003 N.ar    1  LIG1       -0.3503
     18 H          -7.3066    0.4100   -0.0008 H       1  LIG1        0.1660
     19 N          -2.7897    3.5528   -0.0006 N.1     1  LIG1       -0.1907
     20 C          -3.8559    3.1308   -0.0007 C.1     1  LIG1        0.1032
     21 N          -6.3821    4.7060    0.0014 N.pl3   1  LIG1       -0.3553
     22 H          -5.5944    5.1029   -0.4697 H       1  LIG1        0.1424
     23 H          -7.2223    4.9744   -0.4698 H       1  LIG1        0.1424
     24 C          -9.4850    1.6346    0.0006 C.ar    1  LIG1        0.1261
     25 C          -8.5952    2.7244    0.0002 C.ar    1  LIG1        0.0397
     26 C          -9.1237    4.0166    0.0006 C.ar    1  LIG1       -0.0473
     27 C         -10.5106    4.1754    0.0013 C.ar    1  LIG1       -0.0348
     28 C         -11.3184    3.0235    0.0014 C.ar    1  LIG1        0.0766
     29 N         -10.8254    1.7696    0.0012 N.ar    1  LIG1       -0.2317
     30 H          -8.4597    4.8926   -0.0007 H       1  LIG1        0.0626
     31 N          -9.0410    0.4128    0.0004 N.pl3   1  LIG1       -0.3426
     32 H          -9.6946   -0.1792   -0.4711 H       1  LIG1        0.1437
     33 H          -8.1598    0.3785   -0.4712 H       1  LIG1        0.1437
     34 H         -11.0516    5.3575    0.0015 H       1  LIG1        0.0639
     35 C         -13.2247    4.3910    0.0032 C.ar    1  LIG1        0.1260
     36 C         -14.6321    4.4417    0.0055 C.ar    1  LIG1       -0.0193
     37 C         -12.6148    3.1198    0.0021 C.ar    1  LIG1        0.0421
     38 C         -15.4002    3.2796    0.0060 C.ar    1  LIG1       -0.0554
     39 H         -15.1232    5.4123    0.0066 H       1  LIG1        0.0654
     40 C         -13.3811    1.9593    0.0026 C.ar    1  LIG1       -0.0461
     41 C         -14.7780    2.0305    0.0044 C.ar    1  LIG1       -0.0496
     42 H         -12.8872    0.9910    0.0018 H       1  LIG1        0.0628
     43 H         -16.6975    3.3633    0.0079 H       1  LIG1        0.0621
     44 O         -12.5622    5.5095    0.0026 O.3     1  LIG1       -0.5061
     45 H         -13.1775    6.2464    0.0025 H       1  LIG1        0.2922
     46 C         -15.4894    0.9421    0.0050 C.3     1  LIG1       -0.0397
     47 H         -14.9531    0.1658    0.5096 H       1  LIG1        0.0278
     48 H         -15.6847    0.6431   -1.0036 H       1  LIG1        0.0278
     49 H         -16.4157    1.1217    0.5096 H       1  LIG1        0.0278
@<TRIPOS>BOND
     1    48    46    1
     2    33    31    1
     3    32    31    1
     4    23    21    1
     5    22    21    1
     6     7     3    1
     7    14    20    1
     8    14    13   ar
     9    14    15   ar
    10    18    17    1
    11    20    19    3
    12    30    26    1
    13    13     5    1
    14    13    17   ar
    15    12    11    1
    16    11     4    1
    17     5     6   ar
    18     5     4   ar
    19    17    16   ar
    20    16    25    1
    21    16    15   ar
    22     6     1   ar
    23     4     3   ar
    24     1     2   ar
    25     1    10    1
    26     3     2   ar
    27     2     8    1
    28    10     9    3
    29    25    24   ar
    30    25    26   ar
    31    31    24    1
    32    15    21    1
    33    24    29   ar
    34    26    27   ar
    35    29    28   ar
    36    27    28   ar
    37    27    34    1
    38    28    37    1
    39    42    40    1
    40    37    40   ar
    41    37    35   ar
    42    45    44    1
    43    40    41   ar
    44    44    35    1
    45    35    36   ar
    46    41    46    1
    47    41    38   ar
    48    46    49    1
    49    46    47    1
    50    36    38   ar
    51    36    39    1
    52    38    43    1
