@<TRIPOS>MOLECULE
mol_data/noopt/geoms/mol2/6df12ee12ae13ai-6hf4he-4he-4dd-.out
 96 101 0 0 0
SMALL
GASTEIGER

@<TRIPOS>ATOM
      1 C          -4.5775   -2.0270    0.0001 C.ar    1  LIG1        0.1411
      2 C          -3.1706   -2.0270    0.0001 C.ar    1  LIG1       -0.0223
      3 C          -2.5039   -0.8004    0.0001 C.ar    1  LIG1       -0.0152
      4 C          -3.2580    0.3743   -0.0001 C.ar    1  LIG1        0.1459
      5 C          -4.6612    0.2715   -0.0003 C.ar    1  LIG1        0.1499
      6 N          -5.3207   -0.9034   -0.0001 N.ar    1  LIG1       -0.2295
      7 H          -1.4054   -0.7607   -0.0009 H       1  LIG1        0.0655
      8 H          -2.5135   -3.1487    0.0004 H       1  LIG1        0.0647
      9 N          -5.8301   -4.1286    0.0003 N.1     1  LIG1       -0.1893
     10 C          -5.2431   -3.1437    0.0002 C.1     1  LIG1        0.1191
     11 O          -2.6846    1.5410   -0.0003 O.3     1  LIG1       -0.5045
     12 H          -3.3554    2.2278   -0.0003 H       1  LIG1        0.2922
     13 C          -5.4065    1.3366   -0.0004 C.ar    1  LIG1        0.1741
     14 C          -5.1776    2.6970   -0.0005 C.ar    1  LIG1        0.0881
     15 C          -6.4770    3.3362   -0.0006 C.ar    1  LIG1        0.0895
     16 C          -7.4141    2.3236   -0.0007 C.ar    1  LIG1        0.1872
     17 O          -6.7786    1.0814   -0.0006 O.2     1  LIG1       -0.4475
     18 C          -4.0318    3.3111   -0.0004 C.1     1  LIG1       -0.0646
     19 C          -2.9731    3.8785   -0.0003 C.1     1  LIG1       -0.1138
     20 H          -2.0300    4.3839   -0.0002 H       1  LIG1        0.1232
     21 C          -6.6905    4.6186   -0.0007 C.1     1  LIG1       -0.0645
     22 C          -6.8877    5.8035   -0.0007 C.1     1  LIG1       -0.1138
     23 H          -7.0635    6.8590   -0.0008 H       1  LIG1        0.1232
     24 C          -8.7127    2.2633   -0.0007 C.ar    1  LIG1        0.1731
     25 C          -9.7399    3.1840    0.0140 C.ar    1  LIG1        0.0034
     26 C         -10.9748    2.4279    0.0033 C.ar    1  LIG1        0.0725
     27 C         -10.6202    1.0947   -0.0174 C.ar    1  LIG1        0.1672
     28 O          -9.2307    0.9676   -0.0204 O.2     1  LIG1       -0.4490
     29 H          -9.6461    4.4805    0.0339 H       1  LIG1        0.0669
     30 C         -12.1726    2.9331    0.0118 C.1     1  LIG1       -0.0658
     31 C         -13.2793    3.4000    0.0197 C.1     1  LIG1       -0.1138
     32 H         -14.2652    3.8158    0.0267 H       1  LIG1        0.1232
     33 C         -11.2636   -0.0348   -0.0342 C.ar    1  LIG1        0.0840
     34 C         -12.5990   -0.2892   -0.0294 C.ar    1  LIG1       -0.0298
     35 C         -12.7634   -1.7115   -0.0541 C.ar    1  LIG1       -0.0244
     36 C         -11.5213   -2.2637   -0.0747 C.ar    1  LIG1        0.0532
     37 N         -10.6002   -1.2407   -0.0622 N.ar    1  LIG1       -0.3514
     38 H          -9.6128   -1.3547   -0.0724 H       1  LIG1        0.1660
     39 H         -13.5489    0.5980   -0.0051 H       1  LIG1        0.0642
     40 C         -13.8910   -2.3591   -0.0569 C.3     1  LIG1       -0.0377
     41 H         -13.7661   -3.2949    0.4467 H       1  LIG1        0.0278
     42 H         -14.1984   -2.5357   -1.0665 H       1  LIG1        0.0278
     43 H         -14.6363   -1.7796    0.4467 H       1  LIG1        0.0278
     44 C          -9.7868   -3.8473   -0.1151 C.ar    1  LIG1        0.1260
     45 C         -11.1526   -3.5100   -0.1009 C.ar    1  LIG1        0.0387
     46 C         -12.0941   -4.5407   -0.1153 C.ar    1  LIG1       -0.0395
     47 C         -11.6438   -5.8617   -0.1432 C.ar    1  LIG1        0.0110
     48 C         -10.2570   -6.0984   -0.1558 C.ar    1  LIG1        0.0827
     49 N          -9.3349   -5.1161   -0.1420 N.ar    1  LIG1       -0.2311
     50 H         -13.1700   -4.3158   -0.1059 H       1  LIG1        0.0632
     51 N          -8.8727   -2.9230   -0.1025 N.pl3   1  LIG1       -0.3426
     52 H          -8.0546   -3.2569   -0.5706 H       1  LIG1        0.1437
     53 H          -9.2157   -2.1087   -0.5707 H       1  LIG1        0.1437
     54 O         -12.4804   -6.8567   -0.1577 O.3     2  HOH2       -0.2528
     55 H         -11.9939   -7.6843   -0.1612 H       3  UNK3        0.0000
     56 C         -10.6762   -8.4066   -0.1735 C.ar    1  LIG1        0.0542
     57 C         -10.1195   -9.6999   -0.2010 C.ar    1  LIG1       -0.0298
     58 C          -9.7890   -7.3109   -0.1816 C.ar    1  LIG1        0.0245
     59 C          -8.7408   -9.8960   -0.2356 C.ar    1  LIG1        0.0011
     60 H         -10.7860  -10.5595   -0.1951 H       1  LIG1        0.0643
     61 C          -8.4124   -7.5061   -0.2162 C.ar    1  LIG1       -0.0347
     62 C          -7.8787   -8.7987   -0.2435 C.ar    1  LIG1        0.0332
     63 H          -7.7491   -6.6449   -0.2217 H       1  LIG1        0.0637
     64 N         -11.9703   -8.2873   -0.1420 N.pl3   1  LIG1       -0.2659
     65 H         -12.2385   -7.4426   -0.6052 H       0  HOH0        0.2528
     66 H         -12.3885   -9.0686   -0.6053 H       1  LIG1        0.1699
     67 C          -6.5911   -8.9750   -0.2756 C.1     1  LIG1       -0.0690
     68 C          -5.4014   -9.1379   -0.3052 C.1     1  LIG1       -0.1139
     69 H          -4.3416   -9.2829   -0.3316 H       1  LIG1        0.1232
     70 C          -9.1375  -12.2082   -0.2517 C.ar    1  LIG1        0.0330
     71 C          -8.5683  -13.4960   -0.2779 C.ar    1  LIG1       -0.0315
     72 C          -8.2610  -11.1039   -0.2604 C.ar    1  LIG1        0.0052
     73 C          -7.1877  -13.6787   -0.3120 C.ar    1  LIG1        0.0005
     74 H          -9.2265  -14.3620   -0.2716 H       1  LIG1        0.0643
     75 C          -6.8826  -11.2857   -0.2944 C.ar    1  LIG1       -0.0362
     76 C          -6.3364  -12.5731   -0.3205 C.ar    1  LIG1        0.0331
     77 H          -6.2277  -10.4182   -0.3003 H       1  LIG1        0.0637
     78 N         -10.4328  -12.1014   -0.2207 N.pl3   1  LIG1       -0.3575
     79 H         -10.7090  -11.2594   -0.6840 H       1  LIG1        0.1423
     80 H         -10.8432  -12.8868   -0.6840 H       1  LIG1        0.1423
     81 C          -5.0471  -12.7369   -0.3521 C.1     1  LIG1       -0.0690
     82 C          -3.8558  -12.8882   -0.3812 C.1     1  LIG1       -0.1139
     83 H          -2.7947  -13.0230   -0.4072 H       1  LIG1        0.1232
     84 C          -7.5620  -15.9947   -0.3264 C.ar    1  LIG1        0.0596
     85 C          -6.9803  -17.2770   -0.3515 C.ar    1  LIG1       -0.0425
     86 C          -6.6962  -14.8819   -0.3357 C.ar    1  LIG1        0.0019
     87 C          -5.5979  -17.4462   -0.3850 C.ar    1  LIG1       -0.0431
     88 H          -7.6300  -18.1493   -0.3447 H       1  LIG1        0.0631
     89 C          -5.3161  -15.0503   -0.3691 C.ar    1  LIG1       -0.0354
     90 C          -4.7574  -16.3324   -0.3941 C.ar    1  LIG1        0.0524
     91 H          -4.6696  -14.1765   -0.3756 H       1  LIG1        0.0637
     92 H          -5.0948  -18.6447   -0.4076 H       1  LIG1        0.0631
     93 N         -10.0015  -15.8174   -0.2690 N.1     1  LIG1       -0.1909
     94 C          -8.8582  -15.9005   -0.2959 C.1     1  LIG1        0.0998
     95 N          -2.3281  -16.6171   -0.4525 N.1     1  LIG1       -0.1909
     96 C          -3.4666  -16.4837   -0.4251 C.1     1  LIG1        0.0992
@<TRIPOS>BOND
     1    42    40    1
     2    80    78    1
     3    79    78    1
     4    66    64    1
     5    65    54    1
     6    53    51    1
     7    52    51    1
     8    95    96    3
     9    96    90    1
    10    92    87    1
    11    83    82    1
    12    90    87   ar
    13    90    89   ar
    14    87    85   ar
    15    82    81    3
    16    91    89    1
    17    89    86   ar
    18    81    76    1
    19    85    88    1
    20    85    84   ar
    21    86    84   ar
    22    86    73    1
    23    69    68    1
    24    84    94    1
    25    76    73   ar
    26    76    75   ar
    27    73    71   ar
    28    68    67    3
    29    77    75    1
    30    94    93    3
    31    75    72   ar
    32    71    74    1
    33    71    70   ar
    34    67    62    1
    35    72    70   ar
    36    72    59    1
    37    70    78    1
    38    62    59   ar
    39    62    61   ar
    40    59    57   ar
    41    63    61    1
    42    61    58   ar
    43    57    60    1
    44    57    56   ar
    45    58    56   ar
    46    58    48    1
    47    56    64    1
    48    48    47   ar
    49    48    49   ar
    50    47    46   ar
    51    49    44   ar
    52    46    50    1
    53    46    45   ar
    54    44    51    1
    55    44    45   ar
    56    45    36    1
    57    36    37   ar
    58    36    35   ar
    59    38    37    1
    60    37    33   ar
    61    40    35    1
    62    40    43    1
    63    40    41    1
    64    35    34   ar
    65    33    34   ar
    66    33    27    1
    67    34    39    1
    68    28    27   ar
    69    28    24   ar
    70    27    26   ar
    71     7     3    1
    72    23    22    1
    73    22    21    3
    74    24    16    1
    75    24    25   ar
    76    21    15    1
    77    16    17   ar
    78    16    15   ar
    79    17    13   ar
    80    15    14   ar
    81    14    13   ar
    82    14    18    1
    83    13     5    1
    84    18    19    3
    85    12    11    1
    86     5     6   ar
    87     5     4   ar
    88    11     4    1
    89    19    20    1
    90     6     1   ar
    91     4     3   ar
    92     2     3   ar
    93     2     1   ar
    94     2     8    1
    95     1    10    1
    96    10     9    3
    97    26    30    1
    98    26    25   ar
    99    30    31    3
   100    25    29    1
   101    31    32    1
