@<TRIPOS>MOLECULE
mol_data/noopt/geoms/mol2/6df6ia-12el-6ie12al-12fa-13id13li.out
 98 104 0 0 0
SMALL
GASTEIGER

@<TRIPOS>ATOM
      1 C          -4.5775   -2.0270    0.0001 C.ar    1  LIG1        0.1410
      2 C          -3.1706   -2.0270    0.0001 C.ar    1  LIG1       -0.0223
      3 C          -2.5039   -0.8004    0.0001 C.ar    1  LIG1       -0.0154
      4 C          -3.2580    0.3743   -0.0001 C.ar    1  LIG1        0.1428
      5 C          -4.6612    0.2715   -0.0003 C.ar    1  LIG1        0.1154
      6 N          -5.3207   -0.9034   -0.0001 N.ar    1  LIG1       -0.2326
      7 H          -1.4054   -0.7607   -0.0009 H       1  LIG1        0.0655
      8 H          -2.5135   -3.1487    0.0004 H       1  LIG1        0.0647
      9 N          -5.8301   -4.1286    0.0003 N.1     1  LIG1       -0.1893
     10 C          -5.2431   -3.1437    0.0002 C.1     1  LIG1        0.1191
     11 O          -2.6846    1.5410   -0.0003 O.3     1  LIG1       -0.5046
     12 H          -3.3554    2.2278   -0.0003 H       1  LIG1        0.2922
     13 C          -6.8087    1.2234   -0.0215 C.ar    1  LIG1        0.0483
     14 C          -5.4065    1.3366   -0.0004 C.ar    1  LIG1        0.0250
     15 C          -4.8409    2.6128    0.0206 C.ar    1  LIG1       -0.0486
     16 C          -5.6872    3.7230    0.0196 C.ar    1  LIG1       -0.0320
     17 C          -7.0774    3.5076   -0.0025 C.ar    1  LIG1        0.1076
     18 N          -7.6400    2.2835   -0.0227 N.ar    1  LIG1       -0.2481
     19 H          -3.7493    2.7408    0.0363 H       1  LIG1        0.0625
     20 C          -7.3822    0.0566   -0.0413 C.3     1  LIG1       -0.0217
     21 H          -6.7588   -0.6558    0.4576 H       1  LIG1        0.0293
     22 H          -7.5326   -0.2497   -1.0555 H       1  LIG1        0.0293
     23 H          -8.3270    0.1150    0.4575 H       1  LIG1        0.0293
     24 H          -5.2098    4.9320    0.0384 H       1  LIG1        0.0640
     25 C          -7.9061    4.5092   -0.0043 C.ar    1  LIG1        0.1728
     26 C          -7.7876    5.8836    0.0092 C.ar    1  LIG1        0.1142
     27 C          -9.1342    6.4161   -0.0031 C.ar    1  LIG1        0.1818
     28 C          -9.9865    5.3314   -0.0235 C.ar    1  LIG1        0.1801
     29 O          -9.2530    4.1444   -0.0247 O.2     1  LIG1       -0.4482
     30 C          -6.6951    6.5879    0.0293 C.1     1  LIG1       -0.0621
     31 C          -5.6856    7.2386    0.0478 C.1     1  LIG1       -0.1137
     32 H          -4.7864    7.8183    0.0643 H       1  LIG1        0.1232
     33 O          -9.4503    7.6771    0.0039 O.3     1  LIG1       -0.4901
     34 C          -8.2588    8.4679    0.0064 C.3     1  LIG1        0.0790
     35 H          -8.5195    9.5056    0.0120 H       1  LIG1        0.0660
     36 H          -7.6816    8.2404    0.8782 H       1  LIG1        0.0660
     37 H          -7.6838    8.2493   -0.8691 H       1  LIG1        0.0660
     38 C         -11.8275    3.8725   -0.0507 C.ar    1  LIG1        0.0499
     39 C         -11.2759    5.1667   -0.0412 C.ar    1  LIG1        0.0432
     40 C         -12.1428    6.2610   -0.0509 C.ar    1  LIG1       -0.0316
     41 C         -13.5190    6.0280   -0.0697 C.ar    1  LIG1        0.0543
     42 C         -13.9746    4.6969   -0.0783 C.ar    1  LIG1        0.1217
     43 N         -13.1525    3.6295   -0.0689 N.ar    1  LIG1       -0.2468
     44 H         -11.7486    7.2871   -0.0449 H       1  LIG1        0.0638
     45 C         -11.0612    2.8221   -0.0422 C.3     1  LIG1       -0.0216
     46 H         -10.1471    3.0515    0.4645 H       1  LIG1        0.0293
     47 H         -10.8470    2.5287   -1.0487 H       1  LIG1        0.0293
     48 H         -11.5587    2.0217    0.4645 H       1  LIG1        0.0293
     49 C         -14.3673    7.0130   -0.0795 C.1     1  LIG1       -0.0674
     50 C         -15.1512    7.9231   -0.0886 C.1     1  LIG1       -0.1138
     51 H         -15.8495    8.7338   -0.0967 H       1  LIG1        0.1232
     52 C         -15.2465    4.4289   -0.0957 C.ar    1  LIG1        0.1588
     53 C         -16.4081    5.1729   -0.1089 C.ar    1  LIG1        0.0283
     54 C         -17.5056    4.2283   -0.1260 C.ar    1  LIG1        0.1695
     55 C         -16.9415    2.9692   -0.1221 C.ar    1  LIG1        0.2156
     56 O         -15.5497    3.0667   -0.1037 O.2     1  LIG1       -0.4462
     57 H         -16.5238    6.4677   -0.1068 H       1  LIG1        0.0693
     58 O         -18.7689    4.5348   -0.1417 O.3     1  LIG1       -0.4912
     59 C         -18.9149    5.9573   -0.1476 C.3     1  LIG1        0.0790
     60 H         -19.9547    6.2091   -0.1607 H       1  LIG1        0.0660
     61 H         -18.4600    6.3662    0.7304 H       1  LIG1        0.0660
     62 H         -18.4391    6.3611   -1.0167 H       1  LIG1        0.0660
     63 C         -17.3952    1.7509   -0.1315 C.ar    1  LIG1        0.2154
     64 C         -18.6449    1.1669   -0.1238 C.ar    1  LIG1        0.1665
     65 C         -18.4335   -0.2655   -0.1435 C.ar    1  LIG1        0.0280
     66 C         -17.0680   -0.4619   -0.1622 C.ar    1  LIG1        0.1558
     67 O         -16.4062    0.7665   -0.1553 O.2     1  LIG1       -0.4463
     68 O         -19.8009    1.7614   -0.1028 O.3     1  LIG1       -0.5031
     69 H         -20.4997    1.1031   -0.0977 H       1  LIG1        0.2923
     70 H         -19.3680   -1.1693   -0.1434 H       1  LIG1        0.0693
     71 C         -16.2812   -1.4965   -0.1839 C.ar    1  LIG1        0.0862
     72 C         -16.5706   -2.8247   -0.1825 C.ar    1  LIG1       -0.0137
     73 C         -15.3266   -3.5335   -0.2123 C.ar    1  LIG1        0.0149
     74 C         -14.3318   -2.6072   -0.2324 C.ar    1  LIG1        0.0753
     75 N         -14.9118   -1.3588   -0.2147 N.ar    1  LIG1       -0.3498
     76 H         -14.4199   -0.4951   -0.2234 H       1  LIG1        0.1661
     77 C         -17.7593   -3.3510   -0.1570 C.3     1  LIG1       -0.0370
     78 H         -17.7227   -4.2902    0.3543 H       1  LIG1        0.0278
     79 H         -18.1035   -3.5034   -1.1587 H       1  LIG1        0.0278
     80 H         -18.4300   -2.6925    0.3542 H       1  LIG1        0.0278
     81 N         -15.0373   -5.9629   -0.2256 N.3     1  LIG1       -0.1324
     82 C         -15.1729   -4.8243   -0.2193 C.3     1  LIG1        0.0975
     83 C         -13.0407   -2.7564   -0.2620 C.ar    1  LIG1        0.1110
     84 C         -12.2836   -3.8852   -0.2824 C.ar    1  LIG1        0.2083
     85 C         -10.9108   -3.4789   -0.3111 C.ar    1  LIG1        0.0142
     86 C         -10.8894   -2.1197   -0.3087 C.ar    1  LIG1        0.0089
     87 N         -12.1913   -1.6732   -0.2782 N.ar    1  LIG1       -0.3562
     88 H         -12.4732   -0.7201   -0.2699 H       1  LIG1        0.1655
     89 H          -9.8873   -1.2918   -0.3286 H       1  LIG1        0.0811
     90 O         -12.7277   -5.1070   -0.2755 O.3     1  LIG1       -0.2853
     91 C         -14.1577   -5.0951   -0.2730 C.3     1  LIG1       -0.0400
     92 H         -14.5228   -6.1009   -0.2675 H       1  LIG1        0.0250
     93 H         -14.5086   -4.5835    0.5988 H       1  LIG1        0.0250
     94 H         -14.5117   -4.5920   -1.1484 H       1  LIG1        0.0250
     95 C          -9.8733   -4.2625   -0.3355 C.3     1  LIG1       -0.0346
     96 H          -9.0547   -3.7860    0.1622 H       1  LIG1        0.0279
     97 H          -9.6038   -4.4660   -1.3508 H       1  LIG1        0.0279
     98 H         -10.1078   -5.1803    0.1621 H       1  LIG1        0.0279
@<TRIPOS>BOND
     1    97    95    1
     2    79    77    1
     3    94    91    1
     4    22    20    1
     5    47    45    1
     6    62    59    1
     7    37    34    1
     8    95    85    1
     9    95    98    1
    10    95    96    1
    11    89    86    1
    12    85    86   ar
    13    85    84   ar
    14    86    87   ar
    15    84    90    1
    16    84    83   ar
    17    87    88    1
    18    87    83   ar
    19    91    92    1
    20    91    82    1
    21    91    93    1
    22    83    74    1
    23    74    75   ar
    24    74    73   ar
    25    81    82    1
    26    76    75    1
    27    75    71   ar
    28    73    72   ar
    29    71    72   ar
    30    71    66    1
    31    72    77    1
    32    66    67   ar
    33    66    65   ar
    34    60    59    1
    35    77    80    1
    36    77    78    1
    37    67    63   ar
    38    59    58    1
    39    59    61    1
    40    65    70    1
    41    65    64   ar
    42    58    54    1
    43    63    64   ar
    44    63    55    1
    45    54    55   ar
    46    54    53   ar
    47    64    68    1
    48    55    56   ar
    49    53    57    1
    50    53    52   ar
    51    56    52   ar
    52    68    69    1
    53    51    50    1
    54    52    42    1
    55    50    49    3
    56    49    41    1
    57    42    41   ar
    58    42    43   ar
    59    41    40   ar
    60    43    38   ar
    61    40    44    1
    62    40    39   ar
    63    38    45    1
    64    38    39   ar
    65    45    48    1
    66    45    46    1
    67    20    13    1
    68    20    23    1
    69    20    21    1
    70    39    28    1
    71    29    28   ar
    72    29    25   ar
    73    28    27   ar
    74    18    13   ar
    75    18    17   ar
    76    13    14   ar
    77    25    17    1
    78    25    26   ar
    79    27    33    1
    80    27    26   ar
    81    17    16   ar
    82     7     3    1
    83    14     5    1
    84    14    15   ar
    85    12    11    1
    86     5     4   ar
    87     5     6   ar
    88    11     4    1
    89     4     3   ar
    90     6     1   ar
    91     1     2   ar
    92     1    10    1
    93     2     3   ar
    94     2     8    1
    95    10     9    3
    96    33    34    1
    97    34    35    1
    98    34    36    1
    99    26    30    1
   100    16    15   ar
   101    16    24    1
   102    15    19    1
   103    30    31    3
   104    31    32    1
