@<TRIPOS>MOLECULE
mol_data/noopt/geoms/mol2/6df6df.out
 24 25 0 0 0
SMALL
GASTEIGER

@<TRIPOS>ATOM
      1 C          -4.5775   -2.0270    0.0001 C.ar    1  LIG1        0.1410
      2 C          -3.1706   -2.0270    0.0001 C.ar    1  LIG1       -0.0223
      3 C          -2.5039   -0.8004    0.0001 C.ar    1  LIG1       -0.0154
      4 C          -3.2580    0.3743   -0.0001 C.ar    1  LIG1        0.1429
      5 C          -4.6612    0.2715   -0.0003 C.ar    1  LIG1        0.1165
      6 N          -5.3207   -0.9034   -0.0001 N.ar    1  LIG1       -0.2326
      7 H          -1.4054   -0.7607   -0.0009 H       1  LIG1        0.0655
      8 H          -2.5135   -3.1487    0.0004 H       1  LIG1        0.0647
      9 N          -5.8301   -4.1286    0.0003 N.1     1  LIG1       -0.1893
     10 C          -5.2431   -3.1437    0.0002 C.1     1  LIG1        0.1191
     11 O          -2.6846    1.5410   -0.0003 O.3     1  LIG1       -0.5046
     12 H          -3.3554    2.2278   -0.0003 H       1  LIG1        0.2922
     13 C          -6.8088    1.2233   -0.0003 C.ar    1  LIG1        0.1495
     14 C          -5.4065    1.3366   -0.0004 C.ar    1  LIG1        0.0432
     15 C          -4.8408    2.6129   -0.0003 C.ar    1  LIG1       -0.0066
     16 C          -5.6871    3.7231   -0.0003 C.ar    1  LIG1        0.1356
     17 C          -7.0774    3.5076   -0.0004 C.ar    1  LIG1        0.0705
     18 N          -7.6401    2.2834   -0.0003 N.ar    1  LIG1       -0.2403
     19 H          -3.7491    2.7410   -0.0014 H       1  LIG1        0.0662
     20 H          -7.9061    4.5092   -0.0003 H       1  LIG1        0.0867
     21 N          -7.8881   -0.9724   -0.0003 N.1     1  LIG1       -0.1893
     22 C          -7.3823    0.0566   -0.0003 C.1     1  LIG1        0.1198
     23 O          -5.2095    4.9322   -0.0004 O.3     1  LIG1       -0.5052
     24 H          -5.9335    5.5627   -0.0004 H       1  LIG1        0.2922
@<TRIPOS>BOND
     1    19    15    1
     2     7     3    1
     3    14     5    1
     4    14    13   ar
     5    14    15   ar
     6    24    23    1
     7    17    18   ar
     8    17    20    1
     9    17    16   ar
    10    23    16    1
    11    12    11    1
    12     5     6   ar
    13     5     4   ar
    14    11     4    1
    15    13    22    1
    16    13    18   ar
    17    15    16   ar
    18    22    21    3
    19     6     1   ar
    20     4     3   ar
    21     1     2   ar
    22     1    10    1
    23     3     2   ar
    24     2     8    1
    25    10     9    3
