@<TRIPOS>MOLECULE
mol_data/noopt/geoms/mol2/6df6df6df.out
 35 37 0 0 0
SMALL
GASTEIGER

@<TRIPOS>ATOM
      1 C          -4.5775   -2.0270    0.0001 C.ar    1  LIG1        0.1410
      2 C          -3.1706   -2.0270    0.0001 C.ar    1  LIG1       -0.0223
      3 C          -2.5039   -0.8004    0.0001 C.ar    1  LIG1       -0.0154
      4 C          -3.2580    0.3743   -0.0001 C.ar    1  LIG1        0.1429
      5 C          -4.6612    0.2715   -0.0003 C.ar    1  LIG1        0.1165
      6 N          -5.3207   -0.9034   -0.0001 N.ar    1  LIG1       -0.2326
      7 H          -1.4054   -0.7607   -0.0009 H       1  LIG1        0.0655
      8 H          -2.5135   -3.1487    0.0004 H       1  LIG1        0.0647
      9 N          -5.8301   -4.1286    0.0003 N.1     1  LIG1       -0.1893
     10 C          -5.2431   -3.1437    0.0002 C.1     1  LIG1        0.1191
     11 O          -2.6846    1.5410   -0.0003 O.3     1  LIG1       -0.5046
     12 H          -3.3554    2.2278   -0.0003 H       1  LIG1        0.2922
     13 C          -6.8088    1.2233   -0.0003 C.ar    1  LIG1        0.1502
     14 C          -5.4065    1.3366   -0.0004 C.ar    1  LIG1        0.0433
     15 C          -4.8408    2.6129   -0.0003 C.ar    1  LIG1       -0.0060
     16 C          -5.6871    3.7231   -0.0003 C.ar    1  LIG1        0.1435
     17 C          -7.0774    3.5076   -0.0004 C.ar    1  LIG1        0.1166
     18 N          -7.6401    2.2834   -0.0003 N.ar    1  LIG1       -0.2319
     19 H          -3.7491    2.7410   -0.0014 H       1  LIG1        0.0662
     20 N          -7.8881   -0.9724   -0.0003 N.1     1  LIG1       -0.1893
     21 C          -7.3823    0.0566   -0.0003 C.1     1  LIG1        0.1198
     22 O          -5.2095    4.9322   -0.0004 O.3     1  LIG1       -0.5046
     23 H          -5.9335    5.5627   -0.0004 H       1  LIG1        0.2922
     24 C          -9.2948    4.2833   -0.0001 C.ar    1  LIG1        0.1495
     25 C          -7.9061    4.5092   -0.0003 C.ar    1  LIG1        0.0432
     26 C          -7.4450    5.8270   -0.0001 C.ar    1  LIG1       -0.0066
     27 C          -8.3780    6.8653    0.0002 C.ar    1  LIG1        0.1356
     28 C          -9.7465    6.5385    0.0002 C.ar    1  LIG1        0.0705
     29 N         -10.2087    5.2730    0.0002 N.ar    1  LIG1       -0.2403
     30 H          -6.3672    6.0425   -0.0012 H       1  LIG1        0.0662
     31 H         -10.6531    7.4701    0.0005 H       1  LIG1        0.0867
     32 N         -10.1937    2.0078   -0.0002 N.1     1  LIG1       -0.1893
     33 C          -9.7724    3.0742   -0.0002 C.1     1  LIG1        0.1198
     34 O          -7.9993    8.1090    0.0002 O.3     1  LIG1       -0.5052
     35 H          -8.7717    8.6791    0.0002 H       1  LIG1        0.2922
@<TRIPOS>BOND
     1    19    15    1
     2    30    26    1
     3     7     3    1
     4    14     5    1
     5    14    13   ar
     6    14    15   ar
     7    23    22    1
     8    17    18   ar
     9    17    25    1
    10    17    16   ar
    11    22    16    1
    12    12    11    1
    13    11     4    1
    14     5     6   ar
    15     5     4   ar
    16    13    21    1
    17    13    18   ar
    18    15    16   ar
    19    21    20    3
    20    25    24   ar
    21    25    26   ar
    22    32    33    3
    23    33    24    1
    24     6     1   ar
    25     4     3   ar
    26    24    29   ar
    27    26    27   ar
    28     1     2   ar
    29     1    10    1
    30     3     2   ar
    31     2     8    1
    32    29    28   ar
    33    28    27   ar
    34    28    31    1
    35    27    34    1
    36    34    35    1
    37    10     9    3
