@<TRIPOS>MOLECULE
mol_data/noopt/geoms/mol2/6df6df6df-6df.out
 46 49 0 0 0
SMALL
GASTEIGER

@<TRIPOS>ATOM
      1 C          -4.5775   -2.0270    0.0001 C.ar    1  LIG1        0.1410
      2 C          -3.1706   -2.0270    0.0001 C.ar    1  LIG1       -0.0223
      3 C          -2.5039   -0.8004    0.0001 C.ar    1  LIG1       -0.0154
      4 C          -3.2580    0.3743   -0.0001 C.ar    1  LIG1        0.1429
      5 C          -4.6612    0.2715   -0.0003 C.ar    1  LIG1        0.1165
      6 N          -5.3207   -0.9034   -0.0001 N.ar    1  LIG1       -0.2326
      7 H          -1.4054   -0.7607   -0.0009 H       1  LIG1        0.0655
      8 H          -2.5135   -3.1487    0.0004 H       1  LIG1        0.0647
      9 N          -5.8301   -4.1286    0.0003 N.1     1  LIG1       -0.1893
     10 C          -5.2431   -3.1437    0.0002 C.1     1  LIG1        0.1191
     11 O          -2.6846    1.5410   -0.0003 O.3     1  LIG1       -0.5046
     12 H          -3.3554    2.2278   -0.0003 H       1  LIG1        0.2922
     13 C          -6.8088    1.2233   -0.0003 C.ar    1  LIG1        0.1502
     14 C          -5.4065    1.3366   -0.0004 C.ar    1  LIG1        0.0433
     15 C          -4.8408    2.6129   -0.0003 C.ar    1  LIG1       -0.0060
     16 C          -5.6871    3.7231   -0.0003 C.ar    1  LIG1        0.1435
     17 C          -7.0774    3.5076   -0.0004 C.ar    1  LIG1        0.1166
     18 N          -7.6401    2.2834   -0.0003 N.ar    1  LIG1       -0.2319
     19 H          -3.7491    2.7410   -0.0014 H       1  LIG1        0.0662
     20 N          -7.8881   -0.9724   -0.0003 N.1     1  LIG1       -0.1893
     21 C          -7.3823    0.0566   -0.0003 C.1     1  LIG1        0.1198
     22 O          -5.2095    4.9322   -0.0004 O.3     1  LIG1       -0.5046
     23 H          -5.9335    5.5627   -0.0004 H       1  LIG1        0.2922
     24 C          -7.4241    5.8310   -0.0000 C.ar    1  LIG1        0.1502
     25 C          -7.9061    4.5092   -0.0003 C.ar    1  LIG1        0.0433
     26 C          -9.2869    4.3031   -0.0001 C.ar    1  LIG1       -0.0060
     27 C         -10.1321    5.4140    0.0002 C.ar    1  LIG1        0.1435
     28 C          -9.5548    6.6971    0.0002 C.ar    1  LIG1        0.1166
     29 N          -8.2251    6.9141    0.0002 N.ar    1  LIG1       -0.2319
     30 H          -9.7005    3.2847   -0.0012 H       1  LIG1        0.0662
     31 N          -5.0205    6.2878   -0.0002 N.1     1  LIG1       -0.1893
     32 C          -6.1470    6.0737   -0.0001 C.1     1  LIG1        0.1198
     33 O         -11.4247    5.2750    0.0002 O.3     1  LIG1       -0.5046
     34 H         -11.6466    4.3410    0.0002 H       1  LIG1        0.2922
     35 C         -11.7025    7.6489    0.0008 C.ar    1  LIG1        0.1495
     36 C         -10.3001    7.7622    0.0005 C.ar    1  LIG1        0.0432
     37 C          -9.7344    9.0385    0.0008 C.ar    1  LIG1       -0.0066
     38 C         -10.5807   10.1487    0.0012 C.ar    1  LIG1        0.1356
     39 C         -11.9710    9.9332    0.0013 C.ar    1  LIG1        0.0705
     40 N         -12.5338    8.7090    0.0012 N.ar    1  LIG1       -0.2403
     41 H          -8.6427    9.1666   -0.0004 H       1  LIG1        0.0662
     42 H         -12.7997   10.9348    0.0018 H       1  LIG1        0.0867
     43 N         -12.7818    5.4532    0.0004 N.1     1  LIG1       -0.1893
     44 C         -12.2760    6.4822    0.0006 C.1     1  LIG1        0.1198
     45 O         -10.1031   11.3578    0.0014 O.3     1  LIG1       -0.5052
     46 H         -10.8271   11.9883    0.0014 H       1  LIG1        0.2922
@<TRIPOS>BOND
     1    19    15    1
     2    30    26    1
     3     7     3    1
     4    41    37    1
     5    14     5    1
     6    14    13   ar
     7    14    15   ar
     8    23    22    1
     9    17    18   ar
    10    17    25    1
    11    17    16   ar
    12    22    16    1
    13    12    11    1
    14     5     6   ar
    15     5     4   ar
    16    11     4    1
    17    13    21    1
    18    13    18   ar
    19    15    16   ar
    20    21    20    3
    21    25    26   ar
    22    25    24   ar
    23    31    32    3
    24    32    24    1
    25     6     1   ar
    26     4     3   ar
    27    26    27   ar
    28    24    29   ar
    29     1     2   ar
    30     1    10    1
    31     3     2   ar
    32     2     8    1
    33    27    33    1
    34    27    28   ar
    35    33    34    1
    36    28    29   ar
    37    28    36    1
    38    10     9    3
    39    43    44    3
    40    36    35   ar
    41    36    37   ar
    42    44    35    1
    43    35    40   ar
    44    37    38   ar
    45    40    39   ar
    46    38    39   ar
    47    38    45    1
    48    39    42    1
    49    45    46    1
