@<TRIPOS>MOLECULE
mol_data/noopt/geoms/mol2/6df6hd6fl4fh-.out
 52 55 0 0 0
SMALL
GASTEIGER

@<TRIPOS>ATOM
      1 C          -4.5775   -2.0270    0.0001 C.ar    1  LIG1        0.1410
      2 C          -3.1706   -2.0270    0.0001 C.ar    1  LIG1       -0.0223
      3 C          -2.5039   -0.8004    0.0001 C.ar    1  LIG1       -0.0154
      4 C          -3.2580    0.3743   -0.0001 C.ar    1  LIG1        0.1429
      5 C          -4.6612    0.2715   -0.0003 C.ar    1  LIG1        0.1170
      6 N          -5.3207   -0.9034   -0.0001 N.ar    1  LIG1       -0.2326
      7 H          -1.4054   -0.7607   -0.0009 H       1  LIG1        0.0655
      8 H          -2.5135   -3.1487    0.0004 H       1  LIG1        0.0647
      9 N          -5.8301   -4.1286    0.0003 N.1     1  LIG1       -0.1893
     10 C          -5.2431   -3.1437    0.0002 C.1     1  LIG1        0.1191
     11 O          -2.6846    1.5410   -0.0003 O.3     1  LIG1       -0.5046
     12 H          -3.3554    2.2278   -0.0003 H       1  LIG1        0.2922
     13 C          -6.8088    1.2233   -0.0003 C.ar    1  LIG1        0.1263
     14 C          -5.4065    1.3366   -0.0004 C.ar    1  LIG1        0.0447
     15 C          -4.8408    2.6129   -0.0003 C.ar    1  LIG1       -0.0297
     16 C          -5.6871    3.7231   -0.0003 C.ar    1  LIG1        0.0786
     17 C          -7.0774    3.5076   -0.0004 C.ar    1  LIG1        0.0956
     18 N          -7.6401    2.2834   -0.0003 N.ar    1  LIG1       -0.2303
     19 H          -3.7491    2.7410   -0.0014 H       1  LIG1        0.0639
     20 N          -7.3823    0.0566   -0.0003 N.pl3   1  LIG1       -0.3426
     21 H          -8.2621    0.1177   -0.4717 H       1  LIG1        0.1437
     22 H          -6.7967   -0.6027   -0.4717 H       1  LIG1        0.1437
     23 N          -4.7883    5.9986   -0.0004 N.1     1  LIG1       -0.1908
     24 C          -5.2095    4.9322   -0.0004 C.1     1  LIG1        0.1013
     25 C          -9.2948    4.2833   -0.0001 C.ar    1  LIG1        0.2225
     26 C          -7.9061    4.5092   -0.0003 C.ar    1  LIG1        0.0665
     27 C          -7.4450    5.8270   -0.0001 C.ar    1  LIG1       -0.0035
     28 C          -8.3780    6.8653    0.0002 C.ar    1  LIG1        0.1469
     29 C          -9.7465    6.5385    0.0002 C.ar    1  LIG1        0.1198
     30 N         -10.2087    5.2730    0.0002 N.ar    1  LIG1       -0.2087
     31 H          -6.3672    6.0425   -0.0012 H       1  LIG1        0.0663
     32 O          -9.7724    3.0742   -0.0002 O.3     1  LIG1       -0.4919
     33 H          -9.0485    2.4437   -0.0002 H       1  LIG1        0.2937
     34 O          -7.9993    8.1090    0.0002 O.3     1  LIG1       -0.4929
     35 C          -6.5708    8.1730    0.0001 C.3     1  LIG1        0.0789
     36 H          -6.2596    9.1967   -0.0000 H       1  LIG1        0.0660
     37 H          -6.1918    7.6852    0.8739 H       1  LIG1        0.0660
     38 H          -6.1919    7.6849   -0.8734 H       1  LIG1        0.0660
     39 C         -10.2671    8.8260    0.0227 C.ar    1  LIG1        0.1262
     40 C         -11.2871    9.7971    0.0236 C.ar    1  LIG1       -0.0178
     41 C         -10.6531    7.4701    0.0005 C.ar    1  LIG1        0.0472
     42 C         -12.6325    9.4364    0.0027 C.ar    1  LIG1       -0.0376
     43 H         -11.0114   10.8491    0.0408 H       1  LIG1        0.0655
     44 C         -11.9961    7.1095   -0.0204 C.ar    1  LIG1       -0.0282
     45 C         -12.9947    8.0890   -0.0196 C.ar    1  LIG1        0.0254
     46 H         -12.2682    6.0573   -0.0373 H       1  LIG1        0.0644
     47 H         -13.5482   10.3592    0.0041 H       1  LIG1        0.0637
     48 O          -9.0297    9.2240    0.0426 O.3     1  LIG1       -0.5061
     49 H          -9.0018   10.1836    0.0475 H       1  LIG1        0.2922
     50 N         -14.2485    7.7460   -0.0390 N.pl3   1  LIG1       -0.3579
     51 H         -14.7786    8.4474   -0.5154 H       1  LIG1        0.1423
     52 H         -14.3477    6.8724   -0.5154 H       1  LIG1        0.1423
@<TRIPOS>BOND
     1    38    35    1
     2    52    50    1
     3    51    50    1
     4    22    20    1
     5    21    20    1
     6    50    45    1
     7    46    44    1
     8    44    45   ar
     9    44    41   ar
    10    45    42   ar
    11    19    15    1
    12    31    27    1
    13     7     3    1
    14    23    24    3
    15    14     5    1
    16    14    13   ar
    17    14    15   ar
    18    17    18   ar
    19    17    26    1
    20    17    16   ar
    21    24    16    1
    22    12    11    1
    23    11     4    1
    24     5     6   ar
    25     5     4   ar
    26    13    20    1
    27    13    18   ar
    28    15    16   ar
    29    26    25   ar
    30    26    27   ar
    31    33    32    1
    32    32    25    1
    33     6     1   ar
    34     4     3   ar
    35    25    30   ar
    36    27    28   ar
    37    36    35    1
    38     2     3   ar
    39     2     1   ar
    40     2     8    1
    41     1    10    1
    42    35    34    1
    43    35    37    1
    44    30    29   ar
    45    29    28   ar
    46    29    41    1
    47    28    34    1
    48    10     9    3
    49    41    39   ar
    50    42    47    1
    51    42    40   ar
    52    39    40   ar
    53    39    48    1
    54    40    43    1
    55    48    49    1
