@<TRIPOS>MOLECULE
mol_data/noopt/geoms/mol2/6df6df-6df.out
 35 37 0 0 0
SMALL
GASTEIGER

@<TRIPOS>ATOM
      1 C          -4.5775   -2.0270    0.0001 C.ar    1  LIG1        0.1410
      2 C          -3.1706   -2.0270    0.0001 C.ar    1  LIG1       -0.0223
      3 C          -2.5039   -0.8004    0.0001 C.ar    1  LIG1       -0.0154
      4 C          -3.2580    0.3743   -0.0001 C.ar    1  LIG1        0.1429
      5 C          -4.6612    0.2715   -0.0003 C.ar    1  LIG1        0.1165
      6 N          -5.3207   -0.9034   -0.0001 N.ar    1  LIG1       -0.2326
      7 H          -1.4054   -0.7607   -0.0009 H       1  LIG1        0.0655
      8 H          -2.5135   -3.1487    0.0004 H       1  LIG1        0.0647
      9 N          -5.8301   -4.1286    0.0003 N.1     1  LIG1       -0.1893
     10 C          -5.2431   -3.1437    0.0002 C.1     1  LIG1        0.1191
     11 O          -2.6846    1.5410   -0.0003 O.3     1  LIG1       -0.5046
     12 H          -3.3554    2.2278   -0.0003 H       1  LIG1        0.2922
     13 C          -4.8196    2.6153   -0.0003 C.ar    1  LIG1        0.1502
     14 C          -5.4065    1.3366   -0.0004 C.ar    1  LIG1        0.0433
     15 C          -6.7994    1.2424   -0.0003 C.ar    1  LIG1       -0.0060
     16 C          -7.5524    2.4178   -0.0003 C.ar    1  LIG1        0.1435
     17 C          -6.8736    3.6502   -0.0004 C.ar    1  LIG1        0.1166
     18 N          -5.5307    3.7594   -0.0003 N.ar    1  LIG1       -0.2319
     19 H          -7.2937    0.2606   -0.0014 H       1  LIG1        0.0662
     20 N          -2.3870    2.8770   -0.0002 N.1     1  LIG1       -0.1893
     21 C          -3.5271    2.7543   -0.0003 C.1     1  LIG1        0.1198
     22 O          -8.8520    2.3834   -0.0004 O.3     1  LIG1       -0.5046
     23 H          -9.1484    1.4703   -0.0004 H       1  LIG1        0.2922
     24 C          -8.9376    4.7719   -0.0001 C.ar    1  LIG1        0.1495
     25 C          -7.5307    4.7719   -0.0003 C.ar    1  LIG1        0.0432
     26 C          -6.8640    5.9985   -0.0001 C.ar    1  LIG1       -0.0066
     27 C          -7.6181    7.1732    0.0002 C.ar    1  LIG1        0.1356
     28 C          -9.0213    7.0704    0.0002 C.ar    1  LIG1        0.0705
     29 N          -9.6808    5.8955    0.0002 N.ar    1  LIG1       -0.2403
     30 H          -5.7655    6.0382   -0.0012 H       1  LIG1        0.0662
     31 H          -9.7666    8.1355    0.0005 H       1  LIG1        0.0867
     32 N         -10.1903    2.6703   -0.0002 N.1     1  LIG1       -0.1893
     33 C          -9.6032    3.6552   -0.0002 C.1     1  LIG1        0.1198
     34 O          -7.0447    8.3399    0.0002 O.3     1  LIG1       -0.5052
     35 H          -7.7156    9.0266    0.0002 H       1  LIG1        0.2922
@<TRIPOS>BOND
     1    19    15    1
     2    30    26    1
     3     7     3    1
     4    23    22    1
     5    14    15   ar
     6    14     5    1
     7    14    13   ar
     8    22    16    1
     9    17    16   ar
    10    17    25    1
    11    17    18   ar
    12    12    11    1
    13    15    16   ar
    14    11     4    1
    15     5     6   ar
    16     5     4   ar
    17    25    24   ar
    18    25    26   ar
    19    13    18   ar
    20    13    21    1
    21    21    20    3
    22    32    33    3
    23    33    24    1
    24     6     1   ar
    25     4     3   ar
    26    24    29   ar
    27    26    27   ar
    28     1     2   ar
    29     1    10    1
    30     3     2   ar
    31     2     8    1
    32    29    28   ar
    33    28    27   ar
    34    28    31    1
    35    27    34    1
    36    34    35    1
    37    10     9    3
