@<TRIPOS>MOLECULE
mol_data/noopt/geoms/mol2/6dh12li(90)13ee(80)12ii(80).out
 53 56 0 0 0
SMALL
GASTEIGER

@<TRIPOS>ATOM
      1 C          -4.5775   -2.0270    0.0001 C.ar    1  LIG1        0.1410
      2 C          -3.1706   -2.0270    0.0001 C.ar    1  LIG1       -0.0240
      3 C          -2.5039   -0.8004    0.0001 C.ar    1  LIG1       -0.0362
      4 C          -3.2580    0.3743   -0.0001 C.ar    1  LIG1        0.0542
      5 C          -4.6612    0.2715   -0.0003 C.ar    1  LIG1        0.1316
      6 N          -5.3207   -0.9034   -0.0001 N.ar    1  LIG1       -0.2313
      7 H          -1.4054   -0.7607   -0.0009 H       1  LIG1        0.0637
      8 H          -2.5135   -3.1487    0.0004 H       1  LIG1        0.0646
      9 N          -5.8301   -4.1286    0.0003 N.1     1  LIG1       -0.1893
     10 C          -5.2431   -3.1437    0.0002 C.1     1  LIG1        0.1191
     11 N          -2.6846    1.5410   -0.0003 N.pl3   1  LIG1       -0.3562
     12 H          -1.8048    1.4799   -0.4718 H       1  LIG1        0.1424
     13 H          -3.2703    2.2002   -0.4718 H       1  LIG1        0.1424
     14 C          -5.4065    1.3366   -0.0004 C.ar    1  LIG1        0.1973
     15 C          -5.9703    2.1424    0.9670 C.ar    1  LIG1        0.1707
     16 C          -6.6977    3.1818    0.2688 C.ar    1  LIG1        0.0392
     17 C          -6.5299    2.9422   -1.0796 C.ar    1  LIG1        0.1596
     18 O          -5.7374    1.8099   -1.2709 O.2     1  LIG1       -0.4476
     19 O          -5.8823    2.0164    2.2579 O.3     1  LIG1       -0.4910
     20 C          -6.9549    1.1980    2.7318 C.3     1  LIG1        0.0790
     21 H          -6.8820    1.0944    3.7943 H       1  LIG1        0.0660
     22 H          -7.8896    1.6547    2.4813 H       1  LIG1        0.0660
     23 H          -6.8958    0.2325    2.2745 H       1  LIG1        0.0660
     24 C          -7.3704    4.1432    0.8291 C.3     1  LIG1       -0.0325
     25 H          -8.1461    3.7280    1.4380 H       1  LIG1        0.0280
     26 H          -7.8043    4.7631    0.0724 H       1  LIG1        0.0280
     27 H          -6.7145    4.7297    1.4379 H       1  LIG1        0.0280
     28 C          -6.9284    3.5117   -2.1782 C.ar    1  LIG1        0.0998
     29 C          -7.5310    4.7133   -2.3803 C.ar    1  LIG1        0.0690
     30 C          -7.7555    4.8476   -3.7882 C.ar    1  LIG1        0.0690
     31 C          -7.2788    3.7229   -4.3847 C.ar    1  LIG1        0.0996
     32 N          -6.7719    2.9021   -3.4025 N.ar    1  LIG1       -0.3474
     33 H          -6.3580    2.0111   -3.5536 H       1  LIG1        0.1662
     34 C          -7.8453    5.5780   -1.4619 C.1     1  LIG1       -0.0662
     35 C          -8.1358    6.3770   -0.6133 C.1     1  LIG1       -0.1138
     36 H          -8.3946    7.0887    0.1426 H       1  LIG1        0.1232
     37 C          -8.3119    5.8574   -4.3889 C.1     1  LIG1       -0.0662
     38 C          -8.8260    6.7904   -4.9440 C.1     1  LIG1       -0.1138
     39 H          -9.2840    7.6215   -5.4384 H       1  LIG1        0.1232
     40 C          -7.2539    3.3785   -5.6380 C.ar    1  LIG1        0.1552
     41 C          -7.3598    2.1922   -6.3341 C.ar    1  LIG1       -0.0003
     42 C          -7.2456    2.5240   -7.7390 C.ar    1  LIG1       -0.0092
     43 C          -7.0775    3.8917   -7.8082 C.ar    1  LIG1        0.0958
     44 O          -7.0794    4.4411   -6.5256 O.2     1  LIG1       -0.4609
     45 H          -6.9227    4.7587   -8.7644 H       1  LIG1        0.1032
     46 C          -7.5291    0.9975   -5.8495 C.3     1  LIG1       -0.0358
     47 H          -6.6841    0.7333   -5.2485 H       1  LIG1        0.0279
     48 H          -7.6282    0.2975   -6.6528 H       1  LIG1        0.0279
     49 H          -8.4142    0.9784   -5.2486 H       1  LIG1        0.0279
     50 C          -7.2954    1.6769   -8.7242 C.3     1  LIG1       -0.0365
     51 H          -6.4594    1.0117   -8.6653 H       1  LIG1        0.0279
     52 H          -7.2642    2.2076   -9.6529 H       1  LIG1        0.0279
     53 H          -8.2037    1.1144   -8.6653 H       1  LIG1        0.0279
@<TRIPOS>BOND
     1    52    50    1
     2    45    43    1
     3    50    53    1
     4    50    51    1
     5    50    42    1
     6    43    42   ar
     7    43    44   ar
     8    42    41   ar
     9    48    46    1
    10    44    40   ar
    11    41    46    1
    12    41    40   ar
    13    46    49    1
    14    46    47    1
    15    40    31    1
    16    39    38    1
    17    38    37    3
    18    37    30    1
    19    31    30   ar
    20    31    32   ar
    21    30    29   ar
    22    33    32    1
    23    32    28   ar
    24    29    28   ar
    25    29    34    1
    26    28    17    1
    27    34    35    3
    28    18    17   ar
    29    18    14   ar
    30    17    16   ar
    31    35    36    1
    32    13    11    1
    33    12    11    1
    34     7     3    1
    35    14     5    1
    36    14    15   ar
    37     5     4   ar
    38     5     6   ar
    39    11     4    1
    40     4     3   ar
    41     6     1   ar
    42     1     2   ar
    43     1    10    1
    44     2     3   ar
    45     2     8    1
    46    10     9    3
    47    26    24    1
    48    16    24    1
    49    16    15   ar
    50    24    27    1
    51    24    25    1
    52    15    19    1
    53    19    20    1
    54    23    20    1
    55    22    20    1
    56    20    21    1
