@<TRIPOS>MOLECULE
mol_data/noopt/geoms/mol2/6dh12fi-12ea6fe-.out
 46 48 0 0 0
SMALL
GASTEIGER

@<TRIPOS>ATOM
      1 C          -4.5775   -2.0270    0.0001 C.ar    1  LIG1        0.1410
      2 C          -3.1706   -2.0270    0.0001 C.ar    1  LIG1       -0.0240
      3 C          -2.5039   -0.8004    0.0001 C.ar    1  LIG1       -0.0362
      4 C          -3.2580    0.3743   -0.0001 C.ar    1  LIG1        0.0542
      5 C          -4.6612    0.2715   -0.0003 C.ar    1  LIG1        0.1316
      6 N          -5.3207   -0.9034   -0.0001 N.ar    1  LIG1       -0.2313
      7 H          -1.4054   -0.7607   -0.0009 H       1  LIG1        0.0637
      8 H          -2.5135   -3.1487    0.0004 H       1  LIG1        0.0646
      9 N          -5.8301   -4.1286    0.0003 N.1     1  LIG1       -0.1893
     10 C          -5.2431   -3.1437    0.0002 C.1     1  LIG1        0.1191
     11 N          -2.6846    1.5410   -0.0003 N.pl3   1  LIG1       -0.3562
     12 H          -1.8048    1.4799   -0.4718 H       1  LIG1        0.1424
     13 H          -3.2703    2.2002   -0.4718 H       1  LIG1        0.1424
     14 C          -5.4065    1.3366   -0.0004 C.ar    1  LIG1        0.1970
     15 C          -5.1777    2.6969    0.0143 C.ar    1  LIG1        0.1678
     16 C          -6.4770    3.3362    0.0035 C.ar    1  LIG1        0.0375
     17 C          -7.4140    2.3237   -0.0171 C.ar    1  LIG1        0.1442
     18 O          -6.7784    1.0815   -0.0201 O.2     1  LIG1       -0.4491
     19 O          -4.0320    3.3109    0.0342 O.3     1  LIG1       -0.5030
     20 H          -4.1771    4.2599    0.0391 H       1  LIG1        0.2923
     21 C          -6.6906    4.6188    0.0120 C.3     1  LIG1       -0.0326
     22 H          -7.6104    4.8239    0.5188 H       1  LIG1        0.0280
     23 H          -6.7503    4.9772   -0.9945 H       1  LIG1        0.0280
     24 H          -5.8868    5.1109    0.5187 H       1  LIG1        0.0280
     25 C          -8.7125    2.2634   -0.0340 C.2     1  LIG1        0.0449
     26 C          -9.7397    3.1842   -0.0320 C.2     1  LIG1        0.0397
     27 C         -10.9745    2.4282   -0.0591 C.2     1  LIG1        0.0019
     28 C         -10.6196    1.0950   -0.0760 C.2     1  LIG1        0.1924
     29 O          -9.2302    0.9677   -0.0611 O.2     1  LIG1       -0.2871
     30 C          -9.6461    4.4806   -0.0101 C.1     1  LIG1       -0.0688
     31 C          -9.5597    5.6786    0.0100 C.1     1  LIG1       -0.1139
     32 H          -9.4826    6.7456    0.0280 H       1  LIG1        0.1232
     33 H         -12.1722    2.9335   -0.0657 H       1  LIG1        0.0668
     34 C         -10.5598   -1.2526   -0.1369 C.ar    1  LIG1        0.2234
     35 C         -11.2629   -0.0345   -0.1018 C.ar    1  LIG1        0.0841
     36 C         -12.6585   -0.0701   -0.0951 C.ar    1  LIG1       -0.0289
     37 C         -13.2991   -1.3100   -0.1237 C.ar    1  LIG1        0.0437
     38 C         -12.5089   -2.4736   -0.1580 C.ar    1  LIG1        0.0468
     39 N         -11.1617   -2.4575   -0.1648 N.ar    1  LIG1       -0.2196
     40 H         -13.2418    0.8612   -0.0690 H       1  LIG1        0.0639
     41 H         -13.0590   -3.6511   -0.1854 H       1  LIG1        0.0843
     42 O          -9.2599   -1.2709   -0.1444 O.3     1  LIG1       -0.4919
     43 H          -8.9268   -0.3706   -0.1462 H       1  LIG1        0.2937
     44 C         -14.5963   -1.3965   -0.1190 C.1     1  LIG1       -0.0681
     45 C         -15.7948   -1.4764   -0.1147 C.1     1  LIG1       -0.1139
     46 H         -16.8624   -1.5476   -0.1109 H       1  LIG1        0.1232
@<TRIPOS>BOND
     1    23    21    1
     2    13    11    1
     3    12    11    1
     4    41    38    1
     5    39    38   ar
     6    39    34   ar
     7    38    37   ar
     8    43    42    1
     9    42    34    1
    10    34    35   ar
    11    37    44    1
    12    37    36   ar
    13    44    45    3
    14    45    46    1
    15    35    36   ar
    16    35    28    1
    17    36    40    1
    18    28    29    1
    19    28    27    2
    20    33    27    1
    21    27    26    1
    22    25    26    2
    23    25    17    1
    24    26    30    1
    25    18    17   ar
    26    18    14   ar
    27    17    16   ar
    28    30    31    3
    29     7     3    1
    30    14     5    1
    31    14    15   ar
    32    11     4    1
    33     5     6   ar
    34     5     4   ar
    35     6     1   ar
    36     4     3   ar
    37     1     2   ar
    38     1    10    1
    39     3     2   ar
    40     2     8    1
    41    10     9    3
    42    16    21    1
    43    16    15   ar
    44    31    32    1
    45    21    24    1
    46    21    22    1
    47    15    19    1
    48    19    20    1
