@<TRIPOS>MOLECULE
mol_data/noopt/geoms/mol2/6dh13ia-13fl13ae.out
 48 51 0 0 0
SMALL
GASTEIGER

@<TRIPOS>ATOM
      1 C          -4.5775   -2.0270    0.0001 C.ar    1  LIG1        0.1409
      2 C          -3.1706   -2.0270    0.0001 C.ar    1  LIG1       -0.0240
      3 C          -2.5039   -0.8004    0.0001 C.ar    1  LIG1       -0.0362
      4 C          -3.2580    0.3743   -0.0001 C.ar    1  LIG1        0.0524
      5 C          -4.6612    0.2715   -0.0003 C.ar    1  LIG1        0.1093
      6 N          -5.3207   -0.9034   -0.0001 N.ar    1  LIG1       -0.2330
      7 H          -1.4054   -0.7607   -0.0009 H       1  LIG1        0.0637
      8 H          -2.5135   -3.1487    0.0004 H       1  LIG1        0.0646
      9 N          -5.8301   -4.1286    0.0003 N.1     1  LIG1       -0.1893
     10 C          -5.2431   -3.1437    0.0002 C.1     1  LIG1        0.1191
     11 N          -2.6846    1.5410   -0.0003 N.pl3   1  LIG1       -0.3563
     12 H          -1.8048    1.4799   -0.4718 H       1  LIG1        0.1424
     13 H          -3.2703    2.2002   -0.4718 H       1  LIG1        0.1424
     14 C          -5.4065    1.3366   -0.0004 C.ar    1  LIG1        0.0702
     15 C          -5.0647    2.6523    0.0158 C.ar    1  LIG1       -0.0230
     16 C          -6.2798    3.4100    0.0080 C.ar    1  LIG1       -0.0313
     17 C          -7.3107    2.5241   -0.0144 C.ar    1  LIG1        0.0674
     18 N          -6.7805    1.2536   -0.0191 N.ar    1  LIG1       -0.3515
     19 H          -7.3063    0.4102   -0.0343 H       1  LIG1        0.1660
     20 C          -3.8558    3.1307    0.0362 C.3     1  LIG1       -0.0376
     21 H          -3.8531    4.0714    0.5462 H       1  LIG1        0.0278
     22 H          -3.5095    3.2679   -0.9669 H       1  LIG1        0.0278
     23 H          -3.2101    2.4467    0.5461 H       1  LIG1        0.0278
     24 H          -6.3823    4.7059    0.0196 H       1  LIG1        0.0642
     25 C          -8.5951    2.7246   -0.0290 C.ar    1  LIG1        0.1091
     26 C          -9.3070    3.8826   -0.0226 C.ar    1  LIG1        0.1865
     27 C         -10.6951    3.5313   -0.0451 C.ar    1  LIG1        0.1888
     28 C         -10.7703    2.1741   -0.0659 C.ar    1  LIG1        0.1094
     29 N          -9.4869    1.6762   -0.0557 N.ar    1  LIG1       -0.3460
     30 H          -9.2429    0.7127   -0.0666 H       1  LIG1        0.1662
     31 O          -8.8149    5.0856    0.0012 O.3     1  LIG1       -0.5019
     32 H          -9.5311    5.7248    0.0070 H       1  LIG1        0.2924
     33 O         -11.7007    4.3553   -0.0459 O.3     1  LIG1       -0.4895
     34 C         -11.2154    5.7005   -0.0463 C.3     1  LIG1        0.0791
     35 H         -12.0433    6.3783   -0.0472 H       1  LIG1        0.0660
     36 H         -10.6205    5.8653    0.8277 H       1  LIG1        0.0660
     37 H         -10.6194    5.8644   -0.9196 H       1  LIG1        0.0660
     38 C         -11.8045    1.3868   -0.0905 C.ar    1  LIG1        0.0678
     39 C         -13.1327    1.6759   -0.1076 C.ar    1  LIG1       -0.0194
     40 C         -13.8409    0.4315   -0.1312 C.ar    1  LIG1        0.0426
     41 C         -12.9143   -0.5633   -0.1293 C.ar    1  LIG1        0.0177
     42 N         -11.6663    0.0172   -0.1040 N.ar    1  LIG1       -0.3583
     43 H         -10.8025   -0.4745   -0.0972 H       1  LIG1        0.1654
     44 H         -13.0630   -1.8546   -0.1458 H       1  LIG1        0.0819
     45 H         -13.6593    2.8644   -0.1018 H       1  LIG1        0.0651
     46 C         -15.1316    0.2773   -0.1513 C.1     1  LIG1       -0.0682
     47 C         -16.3242    0.1349   -0.1698 C.1     1  LIG1       -0.1139
     48 H         -17.3865    0.0081   -0.1864 H       1  LIG1        0.1232
@<TRIPOS>BOND
     1    22    20    1
     2    37    34    1
     3    13    11    1
     4    12    11    1
     5    48    47    1
     6    47    46    3
     7    46    40    1
     8    44    41    1
     9    40    41   ar
    10    40    39   ar
    11    41    42   ar
    12    39    45    1
    13    39    38   ar
    14    42    43    1
    15    42    38   ar
    16    38    28    1
    17    30    29    1
    18    28    29   ar
    19    28    27   ar
    20    29    25   ar
    21    35    34    1
    22    34    33    1
    23    34    36    1
    24    33    27    1
    25    27    26   ar
    26    19    18    1
    27    25    26   ar
    28    25    17    1
    29    26    31    1
    30    18    17   ar
    31    18    14   ar
    32    17    16   ar
    33     7     3    1
    34    14     5    1
    35    14    15   ar
    36     5     4   ar
    37     5     6   ar
    38    11     4    1
    39     4     3   ar
    40     6     1   ar
    41     1     2   ar
    42     1    10    1
    43     2     3   ar
    44     2     8    1
    45    10     9    3
    46    31    32    1
    47    16    15   ar
    48    16    24    1
    49    15    20    1
    50    20    23    1
    51    20    21    1
