@<TRIPOS>MOLECULE
mol_data/noopt/geoms/mol2/6dh4ia13lh-13fe-.out
 52 51 0 0 0
SMALL
GASTEIGER

@<TRIPOS>ATOM
      1 C          -4.5775   -2.0270    0.0001 C.ar    1  LIG1        0.1408
      2 C          -3.1706   -2.0270    0.0001 C.ar    1  LIG1       -0.0240
      3 C          -2.5039   -0.8004    0.0001 C.ar    1  LIG1       -0.0363
      4 C          -3.2580    0.3743   -0.0001 C.ar    1  LIG1        0.0507
      5 C          -4.6612    0.2715   -0.0003 C.ar    1  LIG1        0.0897
      6 N          -5.3207   -0.9034   -0.0001 N.ar    1  LIG1       -0.2348
      7 H          -1.4054   -0.7607   -0.0009 H       1  LIG1        0.0637
      8 H          -2.5135   -3.1487    0.0004 H       1  LIG1        0.0646
      9 N          -5.8301   -4.1286    0.0003 N.1     1  LIG1       -0.1893
     10 C          -5.2431   -3.1437    0.0002 C.1     1  LIG1        0.1191
     11 N          -2.6846    1.5410   -0.0003 N.pl3   1  LIG1       -0.3563
     12 H          -1.8048    1.4799   -0.4718 H       1  LIG1        0.1424
     13 H          -3.2703    2.2002   -0.4718 H       2  LIG2        0.0227
     14 C          -4.8076    2.6130    0.0003 C.3     1  LIG1        0.0320
     15 C          -5.6584    3.7353    0.0017 C.3     2  LIG2        0.0000
     16 C          -5.4065    1.3366   -0.0004 C.2     1  LIG1       -0.0113
     17 C          -7.0444    3.5952    0.0018 C.2     1  LIG1        0.0113
     18 H          -5.2172    4.7295    0.0025 H       3  LIG3        0.0194
     19 C          -6.7901    1.1962   -0.0003 C.2     1  LIG1       -0.0552
     20 C          -7.6184    2.3233    0.0007 C.2     1  LIG1       -0.0515
     21 H          -7.2278    0.2012   -0.0008 H       1  LIG1        0.0621
     22 C          -3.5219    2.8073    0.0000 C.3     3  LIG3       -0.0681
     23 H          -3.2997    3.7244    0.5044 H       2  LIG2        0.0227
     24 H          -3.1695    2.8606   -1.0089 H       2  LIG2        0.0227
     25 H          -3.0387    1.9967    0.5043 H       1  LIG1        0.1424
     26 H          -8.9112    2.1860    0.0009 H       1  LIG1        0.0624
     27 C          -7.8000    4.6531    0.0030 C.ar    1  LIG1        0.0968
     28 C          -7.4710    5.9719    0.0201 C.ar    1  LIG1        0.2252
     29 C          -8.6934    6.7178    0.0136 C.ar    1  LIG1        0.0997
     30 C          -9.7156    5.8220   -0.0089 C.ar    1  LIG1        0.0917
     31 N          -9.1732    4.5567   -0.0150 N.ar    1  LIG1       -0.3483
     32 H          -9.6908    3.7083   -0.0306 H       1  LIG1        0.1661
     33 O          -6.2670    6.4620    0.0402 O.3     1  LIG1       -0.2837
     34 C          -5.3168    5.3934    0.0475 C.3     4  LIG4       -0.0776
     35 H          -4.3260    5.7972    0.0639 H       3  LIG3        0.0194
     36 H          -5.4690    4.7866    0.9156 H       3  LIG3        0.0194
     37 H          -5.4442    4.7967   -0.8315 H       3  LIG3        0.0194
     38 N          -8.8084    8.0127    0.0263 N.pl3   1  LIG1       -0.3533
     39 H          -8.0250    8.4215   -0.4418 H       1  LIG1        0.1425
     40 H          -9.6515    8.2771   -0.4418 H       1  LIG1        0.1425
     41 C         -11.0019    6.0100   -0.0226 C.ar    1  LIG1        0.1081
     42 C         -11.7249    7.1612   -0.0322 C.ar    1  LIG1        0.1589
     43 C         -13.1096    6.7965   -0.0448 C.ar    1  LIG1        0.0840
     44 C         -13.1719    5.4384   -0.0440 C.ar    1  LIG1        0.0213
     45 N         -11.8837    4.9530   -0.0300 N.ar    1  LIG1       -0.3554
     46 H         -11.6306    3.9917   -0.0265 H       1  LIG1        0.1655
     47 H         -14.1986    4.6411   -0.0530 H       1  LIG1        0.0820
     48 O         -11.2441    8.3691   -0.0290 O.3     1  LIG1       -0.5035
     49 H         -11.9664    9.0014   -0.0282 H       1  LIG1        0.2923
     50 C         -14.1229    7.6107   -0.0555 C.1     1  LIG1       -0.0645
     51 C         -15.0592    8.3631   -0.0653 C.1     1  LIG1       -0.1137
     52 H         -15.8933    9.0333   -0.0741 H       1  LIG1        0.1232
@<TRIPOS>BOND
     1    24    22    1
     2    37    34    1
     3    13    22    1
     4    12    11    1
     5    40    38    1
     6    39    38    1
     7    52    51    1
     8    51    50    3
     9    50    43    1
    10    47    44    1
    11    43    44   ar
    12    43    42   ar
    13    44    45   ar
    14    42    48    1
    15    42    41   ar
    16    32    31    1
    17    45    46    1
    18    45    41   ar
    19    48    49    1
    20    41    30    1
    21    31    30   ar
    22    31    27   ar
    23    30    29   ar
    24     7     3    1
    25    21    19    1
    26    16    19    2
    27    16     5    1
    28    16    14    1
    29    19    20    1
    30    11     4    1
    31    11    25    1
    32     5     6   ar
    33     5     4   ar
    34     6     1   ar
    35     4     3   ar
    36    22    23    1
    37     1     2   ar
    38     1    10    1
    39     2     3   ar
    40     2     8    1
    41    10     9    3
    42    20    26    1
    43    20    17    2
    44    17    27    1
    45    18    34    1
    46    27    28   ar
    47    29    28   ar
    48    29    38    1
    49    28    33    1
    50    34    35    1
    51    34    36    1
