@<TRIPOS>MOLECULE
mol_data/noopt/geoms/mol2/6dh4ii-6ll6ad.out
 57 58 0 0 0
SMALL
GASTEIGER

@<TRIPOS>ATOM
      1 C          -4.5775   -2.0270    0.0001 C.ar    1  LIG1        0.1408
      2 C          -3.1706   -2.0270    0.0001 C.ar    1  LIG1       -0.0240
      3 C          -2.5039   -0.8004    0.0001 C.ar    1  LIG1       -0.0363
      4 C          -3.2580    0.3743   -0.0001 C.ar    1  LIG1        0.0510
      5 C          -4.6612    0.2715   -0.0003 C.ar    1  LIG1        0.0936
      6 N          -5.3207   -0.9034   -0.0001 N.ar    1  LIG1       -0.2345
      7 H          -1.4054   -0.7607   -0.0009 H       1  LIG1        0.0637
      8 H          -2.5135   -3.1487    0.0004 H       1  LIG1        0.0646
      9 N          -5.8301   -4.1286    0.0003 N.1     1  LIG1       -0.1893
     10 C          -5.2431   -3.1437    0.0002 C.1     1  LIG1        0.1191
     11 N          -2.6846    1.5410   -0.0003 N.pl3   1  LIG1       -0.3563
     12 H          -1.8048    1.4799   -0.4718 H       1  LIG1        0.1424
     13 H          -3.2703    2.2002   -0.4718 H       1  LIG1        0.0227
     14 C          -4.8078    2.6129    0.0216 C.ar    1  LIG1       -0.0074
     15 C          -5.6586    3.7351    0.0221 C.ar    1  LIG1       -0.0452
     16 C          -5.4065    1.3366   -0.0004 C.ar    1  LIG1        0.0102
     17 C          -7.0444    3.5952    0.0010 C.ar    1  LIG1       -0.0089
     18 H          -5.2175    4.7293    0.0391 H       1  LIG1        0.0630
     19 C          -6.7900    1.1963   -0.0215 C.ar    1  LIG1       -0.0481
     20 C          -7.6183    2.3234   -0.0211 C.ar    1  LIG1       -0.0385
     21 H          -7.2275    0.2014   -0.0382 H       1  LIG1        0.0627
     22 C          -3.5222    2.8070    0.0417 C.3     2  LIG2       -0.0681
     23 H          -3.3078    3.7230    0.5516 H       1  LIG1        0.0227
     24 H          -3.1542    2.8627   -0.9615 H       1  LIG1        0.0227
     25 H          -3.0468    1.9952    0.5515 H       1  LIG1        0.1424
     26 C          -8.9112    2.1861   -0.0407 C.3     1  LIG1       -0.0231
     27 H          -9.1812    1.2789    0.4583 H       1  LIG1        0.0316
     28 H          -9.2507    2.1500   -1.0548 H       1  LIG1        0.0316
     29 H          -9.3656    3.0165    0.4582 H       1  LIG1        0.2937
     30 C          -9.2012    4.5261    0.0026 C.ar    1  LIG1        0.2210
     31 C          -7.8001    4.6530    0.0019 C.ar    1  LIG1        0.0473
     32 C          -7.2468    5.9348    0.0027 C.ar    1  LIG1       -0.0050
     33 C          -8.1038    7.0367    0.0038 C.ar    1  LIG1        0.1468
     34 C          -9.4920    6.8077    0.0042 C.ar    1  LIG1        0.1178
     35 N         -10.0428    5.5781    0.0038 N.ar    1  LIG1       -0.2088
     36 H          -6.1563    6.0735    0.0011 H       1  LIG1        0.0662
     37 O          -9.7634    3.3539    0.0021 O.3     1  LIG1       -0.4920
     38 C         -11.1852    3.5064    0.0019 C.3     3  LIG3       -0.0681
     39 H         -11.6475    2.5414    0.0013 H       2  LIG2        0.0227
     40 H         -11.4863    4.0455    0.8758 H       2  LIG2        0.0227
     41 H         -11.4859    4.0464   -0.8715 H       2  LIG2        0.0227
     42 O          -7.6380    8.2504    0.0043 O.3     1  LIG1       -0.4929
     43 C          -6.2085    8.2130    0.0044 C.3     1  LIG1        0.0789
     44 H          -5.8255    9.2121    0.0047 H       1  LIG1        0.0660
     45 H          -5.8651    7.6992    0.8781 H       1  LIG1        0.0660
     46 H          -5.8650    7.6996   -0.8692 H       1  LIG1        0.0660
     47 C         -11.7167    7.5618    0.0062 C.ar    1  LIG1        0.0369
     48 C         -10.3304    7.8012    0.0054 C.ar    1  LIG1        0.0234
     49 C          -9.8821    9.1234    0.0062 C.ar    1  LIG1       -0.0321
     50 C         -10.8251   10.1526    0.0076 C.ar    1  LIG1        0.0704
     51 C         -12.1903    9.8125    0.0081 C.ar    1  LIG1        0.0449
     52 N         -12.6403    8.5426    0.0076 N.ar    1  LIG1       -0.2613
     53 H          -8.8064    9.3494    0.0046 H       1  LIG1        0.0638
     54 H         -13.1060   10.7353    0.0095 H       1  LIG1        0.0842
     55 H         -12.1826    6.3481    0.0056 H       1  LIG1        0.0836
     56 N         -10.1353   12.5000    0.0088 N.1     1  LIG1       -0.1908
     57 C         -10.4586   11.3999    0.0082 C.1     1  LIG1        0.1007
@<TRIPOS>BOND
     1    28    26    1
     2    24    22    1
     3    41    38    1
     4    46    43    1
     5    13    22    1
     6    12    11    1
     7    26    20    1
     8    26    27    1
     9    21    19    1
    10    19    20   ar
    11    19    16   ar
    12    20    17   ar
    13     7     3    1
    14    16     5    1
    15    16    14   ar
    16    11     4    1
    17    11    25    1
    18     5     6   ar
    19     5     4   ar
    20     6     1   ar
    21     4     3   ar
    22     1     2   ar
    23     1    10    1
    24     3     2   ar
    25     2     8    1
    26    10     9    3
    27    17    31    1
    28    17    15   ar
    29    36    32    1
    30    39    38    1
    31    38    40    1
    32    31    30   ar
    33    31    32   ar
    34    37    30    1
    35    37    29    1
    36    30    35   ar
    37    32    33   ar
    38    35    34   ar
    39    33    34   ar
    40    33    42    1
    41    34    48    1
    42    42    43    1
    43    43    44    1
    44    43    45    1
    45    53    49    1
    46    48    47   ar
    47    48    49   ar
    48    55    47    1
    49    47    52   ar
    50    49    50   ar
    51    52    51   ar
    52    50    51   ar
    53    50    57    1
    54    51    54    1
    55    57    56    3
    56    14    15   ar
    57    15    18    1
    58    22    23    1
