@<TRIPOS>MOLECULE
mol_data/noopt/geoms/mol2/6dh6al-12ef12dh.out
 47 50 0 0 0
SMALL
GASTEIGER

@<TRIPOS>ATOM
      1 C          -4.5775   -2.0270    0.0001 C.ar    1  LIG1        0.1408
      2 C          -3.1706   -2.0270    0.0001 C.ar    1  LIG1       -0.0240
      3 C          -2.5039   -0.8004    0.0001 C.ar    1  LIG1       -0.0363
      4 C          -3.2580    0.3743   -0.0001 C.ar    1  LIG1        0.0510
      5 C          -4.6612    0.2715   -0.0003 C.ar    1  LIG1        0.0946
      6 N          -5.3207   -0.9034   -0.0001 N.ar    1  LIG1       -0.2345
      7 H          -1.4054   -0.7607   -0.0009 H       1  LIG1        0.0637
      8 H          -2.5135   -3.1487    0.0004 H       1  LIG1        0.0646
      9 N          -5.8301   -4.1286    0.0003 N.1     1  LIG1       -0.1893
     10 C          -5.2431   -3.1437    0.0002 C.1     1  LIG1        0.1191
     11 N          -2.6846    1.5410   -0.0003 N.pl3   1  LIG1       -0.3563
     12 H          -1.8048    1.4799   -0.4718 H       1  LIG1        0.1424
     13 H          -3.2703    2.2002   -0.4718 H       1  LIG1        0.1424
     14 C          -6.8087    1.2234   -0.0215 C.ar    1  LIG1        0.0379
     15 C          -5.4065    1.3366   -0.0004 C.ar    1  LIG1        0.0238
     16 C          -4.8409    2.6128    0.0206 C.ar    1  LIG1       -0.0070
     17 C          -5.6872    3.7230    0.0196 C.ar    1  LIG1        0.1496
     18 C          -7.0774    3.5076   -0.0025 C.ar    1  LIG1        0.1487
     19 N          -7.6400    2.2835   -0.0227 N.ar    1  LIG1       -0.2475
     20 H          -3.7493    2.7408    0.0363 H       1  LIG1        0.0662
     21 H          -7.3820    0.0568   -0.0413 H       1  LIG1        0.0836
     22 O          -5.2098    4.9320    0.0384 O.3     1  LIG1       -0.4928
     23 C          -3.7807    4.8808    0.0452 C.3     1  LIG1        0.0789
     24 H          -3.3882    5.8761    0.0606 H       1  LIG1        0.0660
     25 H          -3.4469    4.3523    0.9137 H       1  LIG1        0.0660
     26 H          -3.4377    4.3756   -0.8334 H       1  LIG1        0.0660
     27 C          -7.9061    4.5092   -0.0043 C.ar    1  LIG1        0.1765
     28 C          -7.7875    5.8836   -0.0056 C.ar    1  LIG1        0.1142
     29 C          -9.1341    6.4161   -0.0073 C.ar    1  LIG1        0.1822
     30 C          -9.9866    5.3313   -0.0070 C.ar    1  LIG1        0.2143
     31 O          -9.2531    4.1444   -0.0052 O.2     1  LIG1       -0.4449
     32 C          -6.6949    6.5880   -0.0053 C.1     1  LIG1       -0.0621
     33 C          -5.6853    7.2388   -0.0050 C.1     1  LIG1       -0.1137
     34 H          -4.7859    7.8186   -0.0047 H       1  LIG1        0.1232
     35 O          -9.4502    7.6772   -0.0088 O.3     1  LIG1       -0.5023
     36 H         -10.4059    7.7679   -0.0092 H       1  LIG1        0.2923
     37 C         -11.2761    5.1666   -0.0079 C.ar    1  LIG1        0.1925
     38 C         -12.3741    6.0016    0.0062 C.ar    1  LIG1        0.1212
     39 C         -13.5442    5.1485   -0.0054 C.ar    1  LIG1        0.0812
     40 C         -13.0833    3.8482   -0.0259 C.ar    1  LIG1        0.1146
     41 O         -11.6881    3.8334   -0.0279 O.2     1  LIG1       -0.4565
     42 H         -13.6337    2.6706   -0.0432 H       1  LIG1        0.1049
     43 N         -12.3948    8.4478    0.0437 N.1     1  LIG1       -0.1907
     44 C         -12.3851    7.3014    0.0261 C.1     1  LIG1        0.1049
     45 N         -14.7788    5.5556    0.0024 N.pl3   1  LIG1       -0.3545
     46 H         -14.8423    6.4363   -0.4671 H       1  LIG1        0.1424
     47 H         -15.3537    4.8855   -0.4671 H       1  LIG1        0.1424
@<TRIPOS>BOND
     1    26    23    1
     2    13    11    1
     3    12    11    1
     4    47    45    1
     5    46    45    1
     6    42    40    1
     7    21    14    1
     8    41    40   ar
     9    41    37   ar
    10    40    39   ar
    11    19    14   ar
    12    19    18   ar
    13    14    15   ar
    14    36    35    1
    15    35    29    1
    16    37    30    1
    17    37    38   ar
    18    29    30   ar
    19    29    28   ar
    20    30    31   ar
    21    28    32    1
    22    28    27   ar
    23    39    45    1
    24    39    38   ar
    25    32    33    3
    26    31    27   ar
    27    33    34    1
    28    27    18    1
    29    18    17   ar
    30     7     3    1
    31    15     5    1
    32    15    16   ar
    33    11     4    1
    34     5     6   ar
    35     5     4   ar
    36     6     1   ar
    37     4     3   ar
    38     1     2   ar
    39     1    10    1
    40     3     2   ar
    41     2     8    1
    42    10     9    3
    43    38    44    1
    44    17    16   ar
    45    17    22    1
    46    16    20    1
    47    44    43    3
    48    22    23    1
    49    23    24    1
    50    23    25    1
