@<TRIPOS>MOLECULE
mol_data/noopt/geoms/mol2/6dh6dh.out
 26 27 0 0 0
SMALL
GASTEIGER

@<TRIPOS>ATOM
      1 C          -4.5775   -2.0270    0.0001 C.ar    1  LIG1        0.1408
      2 C          -3.1706   -2.0270    0.0001 C.ar    1  LIG1       -0.0240
      3 C          -2.5039   -0.8004    0.0001 C.ar    1  LIG1       -0.0363
      4 C          -3.2580    0.3743   -0.0001 C.ar    1  LIG1        0.0511
      5 C          -4.6612    0.2715   -0.0003 C.ar    1  LIG1        0.0958
      6 N          -5.3207   -0.9034   -0.0001 N.ar    1  LIG1       -0.2344
      7 H          -1.4054   -0.7607   -0.0009 H       1  LIG1        0.0637
      8 H          -2.5135   -3.1487    0.0004 H       1  LIG1        0.0646
      9 N          -5.8301   -4.1286    0.0003 N.1     1  LIG1       -0.1893
     10 C          -5.2431   -3.1437    0.0002 C.1     1  LIG1        0.1191
     11 N          -2.6846    1.5410   -0.0003 N.pl3   1  LIG1       -0.3563
     12 H          -1.8048    1.4799   -0.4718 H       1  LIG1        0.1424
     13 H          -3.2703    2.2002   -0.4718 H       1  LIG1        0.1424
     14 C          -6.8088    1.2233   -0.0003 C.ar    1  LIG1        0.1493
     15 C          -5.4065    1.3366   -0.0004 C.ar    1  LIG1        0.0398
     16 C          -4.8408    2.6129   -0.0003 C.ar    1  LIG1       -0.0276
     17 C          -5.6871    3.7231   -0.0003 C.ar    1  LIG1        0.0436
     18 C          -7.0774    3.5076   -0.0004 C.ar    1  LIG1        0.0497
     19 N          -7.6401    2.2834   -0.0003 N.ar    1  LIG1       -0.2421
     20 H          -3.7491    2.7410   -0.0014 H       1  LIG1        0.0644
     21 H          -7.9061    4.5092   -0.0003 H       1  LIG1        0.0849
     22 N          -7.8881   -0.9724   -0.0003 N.1     1  LIG1       -0.1893
     23 C          -7.3823    0.0566   -0.0003 C.1     1  LIG1        0.1198
     24 N          -5.2095    4.9322   -0.0004 N.pl3   1  LIG1       -0.3568
     25 H          -4.3276    4.9422   -0.4718 H       1  LIG1        0.1424
     26 H          -5.8464    5.5421   -0.4718 H       1  LIG1        0.1424
@<TRIPOS>BOND
     1    26    24    1
     2    25    24    1
     3    13    11    1
     4    12    11    1
     5    20    16    1
     6     7     3    1
     7    15     5    1
     8    15    14   ar
     9    15    16   ar
    10    18    19   ar
    11    18    21    1
    12    18    17   ar
    13    24    17    1
    14     5     6   ar
    15     5     4   ar
    16    11     4    1
    17    14    23    1
    18    14    19   ar
    19    16    17   ar
    20    23    22    3
    21     6     1   ar
    22     4     3   ar
    23     1     2   ar
    24     1    10    1
    25     3     2   ar
    26     2     8    1
    27    10     9    3
