@<TRIPOS>MOLECULE
mol_data/noopt/geoms/mol2/6dh6af12fd4df12il-12dh-4ha-13fh-.out
 92 100 0 0 0
SMALL
GASTEIGER

@<TRIPOS>ATOM
      1 C          -4.5775   -2.0270    0.0001 C.ar    1  LIG1        0.1408
      2 C          -3.1706   -2.0270    0.0001 C.ar    1  LIG1       -0.0240
      3 C          -2.5039   -0.8004    0.0001 C.ar    1  LIG1       -0.0363
      4 C          -3.2580    0.3743   -0.0001 C.ar    1  LIG1        0.0510
      5 C          -4.6612    0.2715   -0.0003 C.ar    1  LIG1        0.0946
      6 N          -5.3207   -0.9034   -0.0001 N.ar    1  LIG1       -0.2345
      7 H          -1.4054   -0.7607   -0.0009 H       1  LIG1        0.0637
      8 H          -2.5135   -3.1487    0.0004 H       1  LIG1        0.0646
      9 N          -5.8301   -4.1286    0.0003 N.1     1  LIG1       -0.1893
     10 C          -5.2431   -3.1437    0.0002 C.1     1  LIG1        0.1191
     11 N          -2.6846    1.5410   -0.0003 N.pl3   1  LIG1       -0.3563
     12 H          -1.8048    1.4799   -0.4718 H       1  LIG1        0.1424
     13 H          -3.2703    2.2002   -0.4718 H       1  LIG1        0.1424
     14 C          -6.8088    1.2233   -0.0003 C.ar    1  LIG1        0.0379
     15 C          -5.4065    1.3366   -0.0004 C.ar    1  LIG1        0.0238
     16 C          -4.8408    2.6129   -0.0003 C.ar    1  LIG1       -0.0072
     17 C          -5.6871    3.7231   -0.0003 C.ar    1  LIG1        0.1465
     18 C          -7.0774    3.5076   -0.0004 C.ar    1  LIG1        0.1508
     19 N          -7.6401    2.2834   -0.0003 N.ar    1  LIG1       -0.2474
     20 H          -3.7491    2.7410   -0.0014 H       1  LIG1        0.0662
     21 H          -7.3823    0.0566   -0.0003 H       1  LIG1        0.0836
     22 O          -5.2095    4.9322   -0.0004 O.3     1  LIG1       -0.5045
     23 H          -5.9335    5.5627   -0.0004 H       1  LIG1        0.2922
     24 C          -7.9061    4.5092   -0.0003 C.ar    1  LIG1        0.1988
     25 C          -7.7876    5.8836   -0.0002 C.ar    1  LIG1        0.1702
     26 C          -9.1342    6.4161   -0.0001 C.ar    1  LIG1        0.0681
     27 C          -9.9867    5.3313   -0.0002 C.ar    1  LIG1        0.1450
     28 O          -9.2531    4.1443   -0.0004 O.2     1  LIG1       -0.4490
     29 O          -6.6949    6.5880   -0.0001 O.3     1  LIG1       -0.5029
     30 H          -6.9159    7.5222   -0.0001 H       1  LIG1        0.2923
     31 N          -9.7290    8.7893    0.0001 N.3     1  LIG1       -0.1260
     32 C          -9.4503    7.6771   -0.0000 C.3     1  LIG1        0.1418
     33 C         -12.1278    6.2902    0.0006 C.ar    1  LIG1       -0.0083
     34 C         -13.5169    6.0587    0.0022 C.ar    1  LIG1       -0.0417
     35 C         -11.2761    5.1666   -0.0002 C.ar    1  LIG1        0.0264
     36 C         -14.0373    4.7665    0.0023 C.ar    1  LIG1        0.0594
     37 H         -14.1921    6.9115    0.0030 H       1  LIG1        0.0629
     38 C         -11.7951    3.8763   -0.0000 C.ar    1  LIG1       -0.0085
     39 C         -13.1781    3.6670    0.0011 C.ar    1  LIG1        0.1282
     40 H         -11.1177    3.0262   -0.0005 H       1  LIG1        0.0661
     41 N         -11.3267    8.6019   -0.0000 N.3     1  LIG1       -0.1262
     42 C         -11.7021    7.5185    0.0003 C.3     1  LIG1        0.1351
     43 O         -13.6575    2.4585    0.0014 O.3     1  LIG1       -0.5060
     44 H         -12.9345    1.8270    0.0015 H       1  LIG1        0.2922
     45 C         -15.3252    4.5893    0.0037 C.ar    1  LIG1        0.1459
     46 C         -16.4312    5.4137    0.0047 C.ar    1  LIG1        0.0379
     47 C         -17.5929    4.5492    0.0060 C.ar    1  LIG1        0.1722
     48 C         -17.1195    3.2533    0.0056 C.ar    1  LIG1        0.2135
     49 O         -15.7242    3.2520    0.0041 O.2     1  LIG1       -0.4475
     50 C         -16.4548    6.7138    0.0047 C.3     1  LIG1       -0.0326
     51 H         -17.3348    7.0546    0.5091 H       1  LIG1        0.0280
     52 H         -16.4614    7.0704   -1.0042 H       1  LIG1        0.0280
     53 H         -15.5878    7.0863    0.5090 H       1  LIG1        0.0280
     54 O         -18.8315    4.9444    0.0073 O.3     1  LIG1       -0.4909
     55 C         -18.8764    6.3737    0.0076 C.3     1  LIG1        0.0790
     56 H         -19.8959    6.6985    0.0085 H       1  LIG1        0.0660
     57 H         -18.3828    6.7458    0.8811 H       1  LIG1        0.0660
     58 H         -18.3841    6.7462   -0.8662 H       1  LIG1        0.0660
     59 C         -17.6584    2.0702    0.0064 C.ar    1  LIG1        0.1934
     60 C         -18.9463    1.5763    0.0217 C.ar    1  LIG1        0.1218
     61 C         -18.8370    0.1324    0.0117 C.ar    1  LIG1        0.0894
     62 C         -17.4889   -0.1603   -0.0091 C.ar    1  LIG1        0.1594
     63 O         -16.7417    1.0180   -0.0129 O.2     1  LIG1       -0.4483
     64 N         -21.0369    2.8468    0.0589 N.1     1  LIG1       -0.1907
     65 C         -20.0572    2.2514    0.0414 C.1     1  LIG1        0.1050
     66 N         -19.8332   -0.7029    0.0209 N.pl3   1  LIG1       -0.3540
     67 H         -20.6157   -0.2935   -0.4481 H       1  LIG1        0.1425
     68 H         -19.5665   -1.5448   -0.4481 H       1  LIG1        0.1425
     69 C         -17.4159   -2.5053   -0.0123 C.ar    1  LIG1        0.0360
     70 C         -16.6008   -3.6536   -0.0295 C.ar    1  LIG1       -0.0311
     71 C         -16.7775   -1.2482   -0.0256 C.ar    1  LIG1        0.0398
     72 C         -15.2115   -3.5571   -0.0592 C.ar    1  LIG1        0.0037
     73 H         -17.0728   -4.6336   -0.0195 H       1  LIG1        0.0643
     74 C         -15.3905   -1.1513   -0.0552 C.ar    1  LIG1       -0.0486
     75 C         -14.5980   -2.3038   -0.0723 C.ar    1  LIG1       -0.0517
     76 H         -14.9219   -0.1704   -0.0648 H       1  LIG1        0.0625
     77 N         -18.7065   -2.6592    0.0150 N.pl3   1  LIG1       -0.3574
     78 H         -19.1439   -1.8890   -0.4494 H       1  LIG1        0.1423
     79 H         -18.9505   -3.5105   -0.4494 H       1  LIG1        0.1423
     80 H         -13.3019   -2.2069   -0.0998 H       1  LIG1        0.0624
     81 C         -14.4895   -4.6380   -0.0745 C.ar    1  LIG1        0.0904
     82 C         -14.8599   -5.9459   -0.0853 C.ar    1  LIG1        0.1628
     83 C         -13.6616   -6.7298   -0.0995 C.ar    1  LIG1        0.0848
     84 C         -12.6115   -5.8663   -0.0986 C.ar    1  LIG1        0.0267
     85 N         -13.1139   -4.5847   -0.0828 N.ar    1  LIG1       -0.3561
     86 H         -12.5698   -3.7529   -0.0788 H       1  LIG1        0.1655
     87 H         -11.3318   -6.0946   -0.1086 H       1  LIG1        0.0827
     88 O         -16.0788   -6.3981   -0.0816 O.3     1  LIG1       -0.5031
     89 H         -16.0645   -7.3580   -0.0807 H       1  LIG1        0.2923
     90 N         -13.5874   -8.0276   -0.1116 N.pl3   1  LIG1       -0.3540
     91 H         -14.3838   -8.4026   -0.5861 H       1  LIG1        0.1425
     92 H         -12.7535   -8.3094   -0.5861 H       1  LIG1        0.1425
@<TRIPOS>BOND
     1    52    50    1
     2    58    55    1
     3    92    90    1
     4    91    90    1
     5    13    11    1
     6    12    11    1
     7    79    77    1
     8    78    77    1
     9    68    66    1
    10    67    66    1
    11    90    83    1
    12    87    84    1
    13    80    75    1
    14    83    84   ar
    15    83    82   ar
    16    84    85   ar
    17    82    88    1
    18    82    81   ar
    19    85    86    1
    20    85    81   ar
    21    88    89    1
    22    81    72    1
    23    75    72   ar
    24    75    74   ar
    25    76    74    1
    26    72    70   ar
    27    74    71   ar
    28    70    73    1
    29    70    69   ar
    30    71    69   ar
    31    71    62    1
    32    63    62   ar
    33    63    59   ar
    34    69    77    1
    35    62    61   ar
    36    20    16    1
    37     7     3    1
    38    40    38    1
    39    28    24   ar
    40    28    27   ar
    41    15     5    1
    42    15    14   ar
    43    15    16   ar
    44    23    22    1
    45    18    19   ar
    46    18    24    1
    47    18    17   ar
    48    22    17    1
    49     5     6   ar
    50     5     4   ar
    51    11     4    1
    52    14    21    1
    53    14    19   ar
    54    16    17   ar
    55    24    25   ar
    56    27    35    1
    57    27    26   ar
    58    25    29    1
    59    25    26   ar
    60    35    38   ar
    61    35    33   ar
    62    29    30    1
    63    26    32    1
    64     6     1   ar
    65     4     3   ar
    66    41    31    1
    67    41    42    1
    68    38    39   ar
    69    32    31    1
    70     1     2   ar
    71     1    10    1
    72     2     3   ar
    73     2     8    1
    74    10     9    3
    75    42    33    1
    76    33    34   ar
    77    39    43    1
    78    39    36   ar
    79    43    44    1
    80    34    36   ar
    81    34    37    1
    82    36    45    1
    83    45    49   ar
    84    45    46   ar
    85    49    48   ar
    86    50    46    1
    87    50    53    1
    88    50    51    1
    89    46    47   ar
    90    48    47   ar
    91    48    59    1
    92    47    54    1
    93    59    60   ar
    94    54    55    1
    95    55    56    1
    96    55    57    1
    97    61    66    1
    98    61    60   ar
    99    60    65    1
   100    65    64    3
