@<TRIPOS>MOLECULE
mol_data/noopt/geoms/mol2/6dh6dh-6dh6dh-.out
 50 56 0 0 0
SMALL
GASTEIGER

@<TRIPOS>ATOM
      1 C          -4.5775   -2.0270    0.0001 C.ar    1  LIG1        0.1408
      2 C          -3.1706   -2.0270    0.0001 C.ar    1  LIG1       -0.0240
      3 C          -2.5039   -0.8004    0.0001 C.ar    1  LIG1       -0.0348
      4 C          -3.2580    0.3743   -0.0001 C.ar    1  LIG1        0.0688
      5 C          -4.6612    0.2715   -0.0003 C.ar    1  LIG1        0.0963
      6 N          -5.3207   -0.9034   -0.0001 N.ar    1  LIG1       -0.2344
      7 H          -1.4054   -0.7607   -0.0009 H       1  LIG1        0.0638
      8 H          -2.5135   -3.1487    0.0004 H       1  LIG1        0.0646
      9 N          -5.8301   -4.1286    0.0003 N.1     1  LIG1       -0.1893
     10 C          -5.2431   -3.1437    0.0002 C.1     1  LIG1        0.1191
     11 N          -2.6846    1.5410   -0.0003 N.pl3   1  LIG1       -0.2605
     12 H          -1.8048    1.4799   -0.4718 H       1  LIG1        0.1679
     13 H          -3.2703    2.2002   -0.4718 H       1  LIG1        0.0581
     14 C          -4.8196    2.6153   -0.0003 C.ar    1  LIG1        0.0735
     15 C          -5.4065    1.3366   -0.0004 C.ar    1  LIG1        0.0271
     16 C          -6.7994    1.2424   -0.0003 C.ar    1  LIG1       -0.0265
     17 C          -7.5524    2.4178   -0.0003 C.ar    1  LIG1        0.0694
     18 C          -6.8736    3.6502   -0.0004 C.ar    1  LIG1        0.0952
     19 N          -5.5307    3.7594   -0.0003 N.ar    1  LIG1       -0.2472
     20 H          -7.2937    0.2606   -0.0014 H       1  LIG1        0.0644
     21 N          -2.3870    2.8770   -0.0002 N.3     1  LIG1       -0.1332
     22 C          -3.5271    2.7543   -0.0003 C.3     1  LIG1        0.1120
     23 N          -8.8520    2.3834   -0.0004 N.pl3   1  LIG1       -0.2605
     24 H          -9.2068    3.1908   -0.4718 H       1  LIG1        0.0581
     25 H          -9.1636    1.5584   -0.4719 H       1  LIG1        0.1679
     26 C          -8.9376    4.7719   -0.0001 C.ar    1  LIG1        0.0735
     27 C          -7.5307    4.7719   -0.0003 C.ar    1  LIG1        0.0270
     28 C          -6.8640    5.9985   -0.0001 C.ar    1  LIG1       -0.0265
     29 C          -7.6181    7.1732    0.0002 C.ar    1  LIG1        0.0694
     30 C          -9.0213    7.0704    0.0002 C.ar    1  LIG1        0.0952
     31 N          -9.6808    5.8955    0.0002 N.ar    1  LIG1       -0.2472
     32 H          -5.7655    6.0382   -0.0012 H       1  LIG1        0.0644
     33 N         -10.1903    2.6703   -0.0002 N.3     1  LIG1       -0.1332
     34 C          -9.6032    3.6552   -0.0002 C.3     1  LIG1        0.1120
     35 N          -7.0447    8.3399    0.0002 N.pl3   1  LIG1       -0.2605
     36 H          -6.1649    8.2789   -0.4712 H       1  LIG1        0.1679
     37 H          -7.6304    8.9992   -0.4712 H       1  LIG1        0.0581
     38 C          -9.1798    9.4141    0.0008 C.ar    1  LIG1        0.0728
     39 C          -9.7667    8.1355    0.0005 C.ar    1  LIG1        0.0269
     40 C         -11.1596    8.0413    0.0008 C.ar    1  LIG1       -0.0285
     41 C         -11.9126    9.2167    0.0012 C.ar    1  LIG1        0.0436
     42 C         -11.2338   10.4491    0.0013 C.ar    1  LIG1        0.0486
     43 N          -9.8909   10.5583    0.0012 N.ar    1  LIG1       -0.2556
     44 H         -11.6539    7.0595   -0.0005 H       1  LIG1        0.0643
     45 H         -11.8909   11.5707    0.0018 H       1  LIG1        0.0848
     46 N          -6.7472    9.6759    0.0005 N.3     1  LIG1       -0.1332
     47 C          -7.8872    9.5532    0.0006 C.3     1  LIG1        0.1119
     48 N         -13.2121    9.1823    0.0013 N.pl3   1  LIG1       -0.3568
     49 H         -13.5670    9.9896   -0.4700 H       1  LIG1        0.1424
     50 H         -13.5238    8.3573   -0.4701 H       1  LIG1        0.1424
@<TRIPOS>BOND
     1    25    23    1
     2    24    34    1
     3    13    22    1
     4    12    11    1
     5    37    47    1
     6    36    35    1
     7    50    48    1
     8    49    48    1
     9    20    16    1
    10    32    28    1
    11     7     3    1
    12    44    40    1
    13    15    16   ar
    14    15     5    1
    15    15    14   ar
    16    23    17    1
    17    23    33    1
    18    18    17   ar
    19    18    27    1
    20    18    19   ar
    21    16    17   ar
    22    11    21    1
    23    11     4    1
    24     5     6   ar
    25     5     4   ar
    26    27    26   ar
    27    27    28   ar
    28    14    19   ar
    29    14    22    1
    30    22    21    1
    31    33    34    1
    32    34    26    1
    33     6     1   ar
    34     4     3   ar
    35    26    31   ar
    36    28    29   ar
    37     2     1   ar
    38     2     3   ar
    39     2     8    1
    40     1    10    1
    41    31    30   ar
    42    30    29   ar
    43    30    39    1
    44    29    35    1
    45    35    46    1
    46    10     9    3
    47    39    40   ar
    48    39    38   ar
    49    46    47    1
    50    47    38    1
    51    40    41   ar
    52    38    43   ar
    53    41    42   ar
    54    41    48    1
    55    43    42   ar
    56    42    45    1
