@<TRIPOS>MOLECULE
mol_data/noopt/geoms/mol2/6dh6dh-.out
 26 28 0 0 0
SMALL
GASTEIGER

@<TRIPOS>ATOM
      1 C          -4.5775   -2.0270    0.0001 C.ar    1  LIG1        0.1408
      2 C          -3.1706   -2.0270    0.0001 C.ar    1  LIG1       -0.0240
      3 C          -2.5039   -0.8004    0.0001 C.ar    1  LIG1       -0.0348
      4 C          -3.2580    0.3743   -0.0001 C.ar    1  LIG1        0.0688
      5 C          -4.6612    0.2715   -0.0003 C.ar    1  LIG1        0.0963
      6 N          -5.3207   -0.9034   -0.0001 N.ar    1  LIG1       -0.2344
      7 H          -1.4054   -0.7607   -0.0009 H       1  LIG1        0.0638
      8 H          -2.5135   -3.1487    0.0004 H       1  LIG1        0.0646
      9 N          -5.8301   -4.1286    0.0003 N.1     1  LIG1       -0.1893
     10 C          -5.2431   -3.1437    0.0002 C.1     1  LIG1        0.1191
     11 N          -2.6846    1.5410   -0.0003 N.pl3   1  LIG1       -0.2605
     12 H          -1.8048    1.4799   -0.4718 H       1  LIG1        0.1679
     13 H          -3.2703    2.2002   -0.4718 H       1  LIG1        0.0581
     14 C          -4.8196    2.6153   -0.0003 C.ar    1  LIG1        0.0728
     15 C          -5.4065    1.3366   -0.0004 C.ar    1  LIG1        0.0270
     16 C          -6.7994    1.2424   -0.0003 C.ar    1  LIG1       -0.0285
     17 C          -7.5524    2.4178   -0.0003 C.ar    1  LIG1        0.0436
     18 C          -6.8736    3.6502   -0.0004 C.ar    1  LIG1        0.0486
     19 N          -5.5307    3.7594   -0.0003 N.ar    1  LIG1       -0.2556
     20 H          -7.2937    0.2606   -0.0014 H       1  LIG1        0.0643
     21 H          -7.5307    4.7719   -0.0003 H       1  LIG1        0.0848
     22 N          -2.3870    2.8770   -0.0002 N.3     1  LIG1       -0.1332
     23 C          -3.5271    2.7543   -0.0003 C.3     1  LIG1        0.1119
     24 N          -8.8520    2.3834   -0.0004 N.pl3   1  LIG1       -0.3568
     25 H          -9.2068    3.1908   -0.4718 H       1  LIG1        0.1424
     26 H          -9.1636    1.5584   -0.4719 H       1  LIG1        0.1424
@<TRIPOS>BOND
     1    26    24    1
     2    25    24    1
     3    13    23    1
     4    12    11    1
     5    20    16    1
     6     7     3    1
     7    15    16   ar
     8    15     5    1
     9    15    14   ar
    10    24    17    1
    11    18    17   ar
    12    18    21    1
    13    18    19   ar
    14    16    17   ar
    15     5     6   ar
    16     5     4   ar
    17    11    22    1
    18    11     4    1
    19    14    19   ar
    20    14    23    1
    21    23    22    1
    22     6     1   ar
    23     4     3   ar
    24     1     2   ar
    25     1    10    1
    26     3     2   ar
    27     2     8    1
    28    10     9    3
