@<TRIPOS>MOLECULE
mol_data/noopt/geoms/mol2/6dh6af12di6dd-.out
 46 49 0 0 0
SMALL
GASTEIGER

@<TRIPOS>ATOM
      1 C          -4.5775   -2.0270    0.0001 C.ar    1  LIG1        0.1408
      2 C          -3.1706   -2.0270    0.0001 C.ar    1  LIG1       -0.0240
      3 C          -2.5039   -0.8004    0.0001 C.ar    1  LIG1       -0.0363
      4 C          -3.2580    0.3743   -0.0001 C.ar    1  LIG1        0.0510
      5 C          -4.6612    0.2715   -0.0003 C.ar    1  LIG1        0.0946
      6 N          -5.3207   -0.9034   -0.0001 N.ar    1  LIG1       -0.2345
      7 H          -1.4054   -0.7607   -0.0009 H       1  LIG1        0.0637
      8 H          -2.5135   -3.1487    0.0004 H       1  LIG1        0.0646
      9 N          -5.8301   -4.1286    0.0003 N.1     1  LIG1       -0.1893
     10 C          -5.2431   -3.1437    0.0002 C.1     1  LIG1        0.1191
     11 N          -2.6846    1.5410   -0.0003 N.pl3   1  LIG1       -0.3563
     12 H          -1.8048    1.4799   -0.4718 H       1  LIG1        0.1424
     13 H          -3.2703    2.2002   -0.4718 H       1  LIG1        0.1424
     14 C          -6.8088    1.2233   -0.0003 C.ar    1  LIG1        0.0378
     15 C          -5.4065    1.3366   -0.0004 C.ar    1  LIG1        0.0238
     16 C          -4.8408    2.6129   -0.0003 C.ar    1  LIG1       -0.0072
     17 C          -5.6871    3.7231   -0.0003 C.ar    1  LIG1        0.1464
     18 C          -7.0774    3.5076   -0.0004 C.ar    1  LIG1        0.1485
     19 N          -7.6401    2.2834   -0.0003 N.ar    1  LIG1       -0.2475
     20 H          -3.7491    2.7410   -0.0014 H       1  LIG1        0.0662
     21 H          -7.3823    0.0566   -0.0003 H       1  LIG1        0.0836
     22 O          -5.2095    4.9322   -0.0004 O.3     1  LIG1       -0.5045
     23 H          -5.9335    5.5627   -0.0004 H       1  LIG1        0.2922
     24 C          -7.9061    4.5092   -0.0003 C.ar    1  LIG1        0.1749
     25 C          -7.7876    5.8836   -0.0002 C.ar    1  LIG1        0.1025
     26 C          -9.1342    6.4161   -0.0001 C.ar    1  LIG1        0.0135
     27 C          -9.9867    5.3313   -0.0002 C.ar    1  LIG1        0.1427
     28 O          -9.2531    4.1443   -0.0004 O.2     1  LIG1       -0.4515
     29 N          -5.7312    7.2092   -0.0000 N.1     1  LIG1       -0.1907
     30 C          -6.6949    6.5880   -0.0001 C.1     1  LIG1        0.1033
     31 C          -9.4503    7.6774   -0.0000 C.3     1  LIG1       -0.0349
     32 H         -10.3845    7.8109    0.5044 H       1  LIG1        0.0279
     33 H          -9.5371    8.0234   -1.0088 H       1  LIG1        0.0279
     34 H          -8.6896    8.2357    0.5044 H       1  LIG1        0.0279
     35 C         -11.8278    3.8725   -0.0211 C.ar    1  LIG1        0.1507
     36 C         -11.2762    5.1666   -0.0002 C.ar    1  LIG1        0.0546
     37 C         -12.1431    6.2606    0.0209 C.ar    1  LIG1       -0.0295
     38 C         -13.5195    6.0275    0.0200 C.ar    1  LIG1        0.0706
     39 C         -13.9751    4.6965   -0.0020 C.ar    1  LIG1        0.0464
     40 N         -13.1529    3.6294   -0.0223 N.ar    1  LIG1       -0.2426
     41 H         -11.7489    7.2866    0.0366 H       1  LIG1        0.0639
     42 H         -15.2471    4.4285   -0.0036 H       1  LIG1        0.0843
     43 N         -10.3857    1.8965   -0.0587 N.1     1  LIG1       -0.1893
     44 C         -11.0615    2.8225   -0.0411 C.1     1  LIG1        0.1198
     45 N         -15.1162    7.8808    0.0556 N.1     1  LIG1       -0.1908
     46 C         -14.3679    7.0123    0.0390 C.1     1  LIG1        0.1007
@<TRIPOS>BOND
     1    33    31    1
     2    13    11    1
     3    12    11    1
     4    43    44    3
     5    44    35    1
     6    40    35   ar
     7    40    39   ar
     8    35    36   ar
     9    42    39    1
    10    39    38   ar
    11    20    16    1
    12     7     3    1
    13    28    24   ar
    14    28    27   ar
    15    15     5    1
    16    15    14   ar
    17    15    16   ar
    18    23    22    1
    19    18    19   ar
    20    18    24    1
    21    18    17   ar
    22    22    17    1
    23     5     6   ar
    24     5     4   ar
    25    11     4    1
    26    14    21    1
    27    14    19   ar
    28    16    17   ar
    29    24    25   ar
    30    27    36    1
    31    27    26   ar
    32    25    30    1
    33    25    26   ar
    34    36    37   ar
    35    30    29    3
    36    26    31    1
    37     6     1   ar
    38     4     3   ar
    39    31    34    1
    40    31    32    1
    41     1     2   ar
    42     1    10    1
    43     3     2   ar
    44     2     8    1
    45    10     9    3
    46    38    37   ar
    47    38    46    1
    48    37    41    1
    49    46    45    3
