@<TRIPOS>MOLECULE
mol_data/noopt/geoms/mol2/6dh6dh-6dh-6dh-.out
 50 54 0 0 0
SMALL
GASTEIGER

@<TRIPOS>ATOM
      1 C          -4.5775   -2.0270    0.0001 C.ar    1  LIG1        0.1408
      2 C          -3.1706   -2.0270    0.0001 C.ar    1  LIG1       -0.0240
      3 C          -2.5039   -0.8004    0.0001 C.ar    1  LIG1       -0.0348
      4 C          -3.2580    0.3743   -0.0001 C.ar    1  LIG1        0.0688
      5 C          -4.6612    0.2715   -0.0003 C.ar    1  LIG1        0.0963
      6 N          -5.3207   -0.9034   -0.0001 N.ar    1  LIG1       -0.2344
      7 H          -1.4054   -0.7607   -0.0009 H       1  LIG1        0.0638
      8 H          -2.5135   -3.1487    0.0004 H       1  LIG1        0.0646
      9 N          -5.8301   -4.1286    0.0003 N.1     1  LIG1       -0.1893
     10 C          -5.2431   -3.1437    0.0002 C.1     1  LIG1        0.1191
     11 N          -2.6846    1.5410   -0.0003 N.pl3   1  LIG1       -0.2605
     12 H          -1.8048    1.4799   -0.4718 H       1  LIG1        0.1679
     13 H          -3.2703    2.2002   -0.4718 H       1  LIG1        0.0581
     14 C          -4.8196    2.6153   -0.0003 C.ar    1  LIG1        0.0735
     15 C          -5.4065    1.3366   -0.0004 C.ar    1  LIG1        0.0270
     16 C          -6.7994    1.2424   -0.0003 C.ar    1  LIG1       -0.0279
     17 C          -7.5524    2.4178   -0.0003 C.ar    1  LIG1        0.0516
     18 C          -6.8736    3.6502   -0.0004 C.ar    1  LIG1        0.0947
     19 N          -5.5307    3.7594   -0.0003 N.ar    1  LIG1       -0.2473
     20 H          -7.2937    0.2606   -0.0014 H       1  LIG1        0.0644
     21 N          -2.3870    2.8770   -0.0002 N.3     1  LIG1       -0.1332
     22 C          -3.5271    2.7543   -0.0003 C.3     1  LIG1        0.1120
     23 N          -8.8520    2.3834   -0.0004 N.pl3   1  LIG1       -0.3563
     24 H          -9.2068    3.1908   -0.4718 H       1  LIG1        0.1424
     25 H          -9.1636    1.5584   -0.4719 H       1  LIG1        0.1424
     26 C          -6.8427    5.9991   -0.0000 C.ar    1  LIG1        0.1500
     27 C          -7.5307    4.7719   -0.0003 C.ar    1  LIG1        0.0398
     28 C          -8.9267    4.7902   -0.0001 C.ar    1  LIG1       -0.0270
     29 C          -9.5826    6.0224    0.0002 C.ar    1  LIG1        0.0517
     30 C          -8.8067    7.1961    0.0002 C.ar    1  LIG1        0.0958
     31 N          -7.4594    7.1968    0.0002 N.ar    1  LIG1       -0.2337
     32 H          -9.4985    3.8514   -0.0012 H       1  LIG1        0.0644
     33 N          -4.3970    6.0640   -0.0002 N.1     1  LIG1       -0.1893
     34 C          -5.5432    6.0336   -0.0001 C.1     1  LIG1        0.1198
     35 N         -10.8807    6.0928    0.0002 N.pl3   1  LIG1       -0.3563
     36 H         -11.1693    6.9261   -0.4712 H       1  LIG1        0.1424
     37 H         -11.2577    5.2955   -0.4713 H       1  LIG1        0.1424
     38 C          -8.5867    9.5349    0.0008 C.ar    1  LIG1        0.1493
     39 C          -9.3714    8.3671    0.0005 C.ar    1  LIG1        0.0398
     40 C         -10.7613    8.4977    0.0008 C.ar    1  LIG1       -0.0276
     41 C         -11.3158    9.7788    0.0012 C.ar    1  LIG1        0.0436
     42 C         -10.4479   10.8862    0.0013 C.ar    1  LIG1        0.0497
     43 N          -9.1049   10.7784    0.0012 N.ar    1  LIG1       -0.2421
     44 H         -11.4069    7.6081   -0.0005 H       1  LIG1        0.0644
     45 H         -10.9164   12.0988    0.0018 H       1  LIG1        0.0849
     46 N          -6.1437    9.4026    0.0005 N.1     1  LIG1       -0.1893
     47 C          -7.2886    9.4646    0.0006 C.1     1  LIG1        0.1198
     48 N         -12.6040    9.9535    0.0014 N.pl3   1  LIG1       -0.3568
     49 H         -12.8246   10.8074   -0.4700 H       1  LIG1        0.1424
     50 H         -13.0441    9.1893   -0.4701 H       1  LIG1        0.1424
@<TRIPOS>BOND
     1    25    23    1
     2    24    23    1
     3    13    22    1
     4    12    11    1
     5    37    35    1
     6    36    35    1
     7    50    48    1
     8    49    48    1
     9    20    16    1
    10    32    28    1
    11     7     3    1
    12    44    40    1
    13    15    16   ar
    14    15     5    1
    15    15    14   ar
    16    23    17    1
    17    18    17   ar
    18    18    27    1
    19    18    19   ar
    20    16    17   ar
    21    11    21    1
    22    11     4    1
    23     5     6   ar
    24     5     4   ar
    25    27    28   ar
    26    27    26   ar
    27    14    19   ar
    28    14    22    1
    29    22    21    1
    30    33    34    3
    31    34    26    1
    32     6     1   ar
    33     4     3   ar
    34    28    29   ar
    35    26    31   ar
    36     1     2   ar
    37     1    10    1
    38     2     3   ar
    39     2     8    1
    40    29    30   ar
    41    29    35    1
    42    30    31   ar
    43    30    39    1
    44    10     9    3
    45    39    40   ar
    46    39    38   ar
    47    46    47    3
    48    47    38    1
    49    40    41   ar
    50    38    43   ar
    51    41    42   ar
    52    41    48    1
    53    43    42   ar
    54    42    45    1
