@<TRIPOS>MOLECULE
mol_data/noopt/geoms/mol2/6dh6ie12ll(210)6hf(80).out
 55 58 0 0 0
SMALL
GASTEIGER

@<TRIPOS>ATOM
      1 C          -4.5775   -2.0270    0.0001 C.ar    1  LIG1        0.1408
      2 C          -3.1706   -2.0270    0.0001 C.ar    1  LIG1       -0.0240
      3 C          -2.5039   -0.8004    0.0001 C.ar    1  LIG1       -0.0363
      4 C          -3.2580    0.3743   -0.0001 C.ar    1  LIG1        0.0510
      5 C          -4.6612    0.2715   -0.0003 C.ar    1  LIG1        0.0947
      6 N          -5.3207   -0.9034   -0.0001 N.ar    1  LIG1       -0.2345
      7 H          -1.4054   -0.7607   -0.0009 H       1  LIG1        0.0637
      8 H          -2.5135   -3.1487    0.0004 H       1  LIG1        0.0646
      9 N          -5.8301   -4.1286    0.0003 N.1     1  LIG1       -0.1893
     10 C          -5.2431   -3.1437    0.0002 C.1     1  LIG1        0.1191
     11 N          -2.6846    1.5410   -0.0003 N.pl3   1  LIG1       -0.3563
     12 H          -1.8048    1.4799   -0.4718 H       1  LIG1        0.1424
     13 H          -3.2703    2.2002   -0.4718 H       1  LIG1        0.1424
     14 C          -6.8088    1.2233   -0.0003 C.ar    1  LIG1        0.0483
     15 C          -5.4065    1.3366   -0.0004 C.ar    1  LIG1        0.0244
     16 C          -4.8408    2.6129   -0.0003 C.ar    1  LIG1       -0.0332
     17 C          -5.6871    3.7231   -0.0003 C.ar    1  LIG1        0.0544
     18 C          -7.0774    3.5076   -0.0004 C.ar    1  LIG1        0.1254
     19 N          -7.6401    2.2834   -0.0003 N.ar    1  LIG1       -0.2468
     20 H          -3.7491    2.7410   -0.0014 H       1  LIG1        0.0637
     21 C          -7.3825    0.0563   -0.0003 C.3     1  LIG1       -0.0217
     22 H          -6.7558   -0.6491    0.5041 H       1  LIG1        0.0293
     23 H          -7.5398   -0.2638   -1.0091 H       1  LIG1        0.0293
     24 H          -8.3239    0.1217    0.5041 H       1  LIG1        0.0293
     25 C          -5.2095    4.9322   -0.0004 C.1     1  LIG1       -0.0674
     26 C          -4.7682    6.0494   -0.0004 C.1     1  LIG1       -0.1138
     27 H          -4.3752    7.0446   -0.0005 H       1  LIG1        0.1232
     28 C          -7.9061    4.5092   -0.0003 C.ar    1  LIG1        0.2002
     29 C          -9.1982    4.7166   -0.4368 C.ar    1  LIG1        0.2101
     30 C          -9.5269    6.0912   -0.1217 C.ar    1  LIG1        0.2087
     31 C          -8.4134    6.6328    0.4869 C.ar    1  LIG1        0.1844
     32 O          -7.4008    5.6768    0.5733 O.2     1  LIG1       -0.4455
     33 O          -9.9877    3.8638   -1.0195 O.3     1  LIG1       -0.4884
     34 C         -11.2667    4.4665   -1.2335 C.3     1  LIG1        0.0791
     35 H         -11.9161    3.7644   -1.7132 H       1  LIG1        0.0660
     36 H         -11.6866    4.7557   -0.2927 H       1  LIG1        0.0660
     37 H         -11.1544    5.3305   -1.8546 H       1  LIG1        0.0660
     38 O         -10.6600    6.6763   -0.3744 O.3     1  LIG1       -0.4884
     39 C         -10.4574    8.0889   -0.4673 C.3     1  LIG1        0.0791
     40 H         -11.3901    8.5701   -0.6755 H       1  LIG1        0.0660
     41 H         -10.0663    8.4548    0.4590 H       1  LIG1        0.0660
     42 H          -9.7642    8.2988   -1.2549 H       1  LIG1        0.0660
     43 C          -8.0158    8.9232    0.1489 C.ar    1  LIG1        0.1272
     44 C          -8.1012    7.7933    0.9827 C.ar    1  LIG1        0.0640
     45 C          -7.8441    7.9498    2.3460 C.ar    1  LIG1       -0.0046
     46 C          -7.5132    9.2180    2.8262 C.ar    1  LIG1        0.1357
     47 C          -7.4529   10.2870    1.9134 C.ar    1  LIG1        0.0711
     48 N          -7.6980   10.1539    0.5952 N.ar    1  LIG1       -0.2364
     49 H          -7.9002    7.0897    3.0282 H       1  LIG1        0.0663
     50 H          -7.1492   11.4864    2.3123 H       1  LIG1        0.0867
     51 N          -8.2464    8.8279   -1.1270 N.pl3   1  LIG1       -0.3426
     52 H          -8.1900    9.7348   -1.5445 H       1  LIG1        0.1437
     53 H          -7.5660    8.2258   -1.5446 H       1  LIG1        0.1437
     54 O          -7.2648    9.4156    4.0869 O.3     1  LIG1       -0.5052
     55 H          -7.7670   10.1726    4.3976 H       1  LIG1        0.2922
@<TRIPOS>BOND
     1    37    34    1
     2    35    34    1
     3    53    51    1
     4    52    51    1
     5    42    39    1
     6    34    33    1
     7    34    36    1
     8    51    43    1
     9    33    29    1
    10    23    21    1
    11    40    39    1
    12    13    11    1
    13    12    11    1
    14    39    38    1
    15    39    41    1
    16    29    30   ar
    17    29    28   ar
    18    38    30    1
    19    30    31   ar
    20    20    16    1
    21     7     3    1
    22    27    26    1
    23    26    25    3
    24    15     5    1
    25    15    14   ar
    26    15    16   ar
    27    18    19   ar
    28    18    28    1
    29    18    17   ar
    30    25    17    1
    31    11     4    1
    32     5     6   ar
    33     5     4   ar
    34    14    21    1
    35    14    19   ar
    36    16    17   ar
    37    21    24    1
    38    21    22    1
    39    28    32   ar
    40     6     1   ar
    41     4     3   ar
    42     1     2   ar
    43     1    10    1
    44     3     2   ar
    45     2     8    1
    46    10     9    3
    47    43    48   ar
    48    43    44   ar
    49    31    32   ar
    50    31    44    1
    51    48    47   ar
    52    44    45   ar
    53    47    50    1
    54    47    46   ar
    55    45    46   ar
    56    45    49    1
    57    46    54    1
    58    54    55    1
