@<TRIPOS>MOLECULE
mol_data/noopt/geoms/mol2/6dh6dh6dh-6dh.out
 50 55 0 0 0
SMALL
GASTEIGER

@<TRIPOS>ATOM
      1 C          -4.5775   -2.0270    0.0001 C.ar    1  LIG1        0.1408
      2 C          -3.1706   -2.0270    0.0001 C.ar    1  LIG1       -0.0240
      3 C          -2.5039   -0.8004    0.0001 C.ar    1  LIG1       -0.0363
      4 C          -3.2580    0.3743   -0.0001 C.ar    1  LIG1        0.0511
      5 C          -4.6612    0.2715   -0.0003 C.ar    1  LIG1        0.0958
      6 N          -5.3207   -0.9034   -0.0001 N.ar    1  LIG1       -0.2344
      7 H          -1.4054   -0.7607   -0.0009 H       1  LIG1        0.0637
      8 H          -2.5135   -3.1487    0.0004 H       1  LIG1        0.0646
      9 N          -5.8301   -4.1286    0.0003 N.1     1  LIG1       -0.1893
     10 C          -5.2431   -3.1437    0.0002 C.1     1  LIG1        0.1191
     11 N          -2.6846    1.5410   -0.0003 N.pl3   1  LIG1       -0.3563
     12 H          -1.8048    1.4799   -0.4718 H       1  LIG1        0.1424
     13 H          -3.2703    2.2002   -0.4718 H       1  LIG1        0.1424
     14 C          -6.8088    1.2233   -0.0003 C.ar    1  LIG1        0.1500
     15 C          -5.4065    1.3366   -0.0004 C.ar    1  LIG1        0.0398
     16 C          -4.8408    2.6129   -0.0003 C.ar    1  LIG1       -0.0255
     17 C          -5.6871    3.7231   -0.0003 C.ar    1  LIG1        0.0694
     18 C          -7.0774    3.5076   -0.0004 C.ar    1  LIG1        0.0963
     19 N          -7.6401    2.2834   -0.0003 N.ar    1  LIG1       -0.2337
     20 H          -3.7491    2.7410   -0.0014 H       1  LIG1        0.0644
     21 N          -7.8881   -0.9724   -0.0003 N.1     1  LIG1       -0.1893
     22 C          -7.3823    0.0566   -0.0003 C.1     1  LIG1        0.1198
     23 N          -5.2095    4.9322   -0.0004 N.pl3   1  LIG1       -0.2605
     24 H          -4.3276    4.9422   -0.4718 H       1  LIG1        0.1679
     25 H          -5.8464    5.5421   -0.4718 H       1  LIG1        0.0581
     26 C          -7.4241    5.8310   -0.0000 C.ar    1  LIG1        0.0735
     27 C          -7.9061    4.5092   -0.0003 C.ar    1  LIG1        0.0271
     28 C          -9.2869    4.3031   -0.0001 C.ar    1  LIG1       -0.0265
     29 C         -10.1321    5.4140    0.0002 C.ar    1  LIG1        0.0694
     30 C          -9.5548    6.6971    0.0002 C.ar    1  LIG1        0.0952
     31 N          -8.2251    6.9141    0.0002 N.ar    1  LIG1       -0.2472
     32 H          -9.7005    3.2847   -0.0012 H       1  LIG1        0.0644
     33 N          -5.0205    6.2878   -0.0002 N.3     1  LIG1       -0.1332
     34 C          -6.1470    6.0737   -0.0001 C.3     1  LIG1        0.1120
     35 N         -11.4247    5.2750    0.0002 N.pl3   1  LIG1       -0.2605
     36 H         -11.8434    6.0512   -0.4712 H       1  LIG1        0.0581
     37 H         -11.6688    4.4276   -0.4713 H       1  LIG1        0.1679
     38 C         -11.7025    7.6489    0.0008 C.ar    1  LIG1        0.0728
     39 C         -10.3001    7.7622    0.0005 C.ar    1  LIG1        0.0269
     40 C          -9.7344    9.0385    0.0008 C.ar    1  LIG1       -0.0285
     41 C         -10.5807   10.1487    0.0012 C.ar    1  LIG1        0.0436
     42 C         -11.9710    9.9332    0.0013 C.ar    1  LIG1        0.0486
     43 N         -12.5338    8.7090    0.0012 N.ar    1  LIG1       -0.2556
     44 H          -8.6427    9.1666   -0.0004 H       1  LIG1        0.0643
     45 H         -12.7997   10.9348    0.0018 H       1  LIG1        0.0848
     46 N         -12.7818    5.4532    0.0004 N.3     1  LIG1       -0.1332
     47 C         -12.2760    6.4822    0.0006 C.3     1  LIG1        0.1119
     48 N         -10.1031   11.3578    0.0014 N.pl3   1  LIG1       -0.3568
     49 H          -9.2212   11.3679   -0.4700 H       1  LIG1        0.1424
     50 H         -10.7400   11.9678   -0.4700 H       1  LIG1        0.1424
@<TRIPOS>BOND
     1    25    34    1
     2    24    23    1
     3    13    11    1
     4    12    11    1
     5    37    35    1
     6    36    47    1
     7    50    48    1
     8    49    48    1
     9    20    16    1
    10    32    28    1
    11     7     3    1
    12    44    40    1
    13    15     5    1
    14    15    14   ar
    15    15    16   ar
    16    18    19   ar
    17    18    27    1
    18    18    17   ar
    19    23    17    1
    20    23    33    1
    21    11     4    1
    22     5     6   ar
    23     5     4   ar
    24    14    22    1
    25    14    19   ar
    26    16    17   ar
    27    22    21    3
    28    27    28   ar
    29    27    26   ar
    30    33    34    1
    31    34    26    1
    32     6     1   ar
    33     4     3   ar
    34    28    29   ar
    35    26    31   ar
    36     1     2   ar
    37     1    10    1
    38     2     3   ar
    39     2     8    1
    40    29    35    1
    41    29    30   ar
    42    35    46    1
    43    30    31   ar
    44    30    39    1
    45    10     9    3
    46    46    47    1
    47    39    38   ar
    48    39    40   ar
    49    47    38    1
    50    38    43   ar
    51    40    41   ar
    52    43    42   ar
    53    41    42   ar
    54    41    48    1
    55    42    45    1
