@<TRIPOS>MOLECULE
mol_data/noopt/geoms/mol2/6dh6dh6dh-6dh-.out
 50 54 0 0 0
SMALL
GASTEIGER

@<TRIPOS>ATOM
      1 C          -4.5775   -2.0270    0.0001 C.ar    1  LIG1        0.1408
      2 C          -3.1706   -2.0270    0.0001 C.ar    1  LIG1       -0.0240
      3 C          -2.5039   -0.8004    0.0001 C.ar    1  LIG1       -0.0363
      4 C          -3.2580    0.3743   -0.0001 C.ar    1  LIG1        0.0511
      5 C          -4.6612    0.2715   -0.0003 C.ar    1  LIG1        0.0958
      6 N          -5.3207   -0.9034   -0.0001 N.ar    1  LIG1       -0.2344
      7 H          -1.4054   -0.7607   -0.0009 H       1  LIG1        0.0637
      8 H          -2.5135   -3.1487    0.0004 H       1  LIG1        0.0646
      9 N          -5.8301   -4.1286    0.0003 N.1     1  LIG1       -0.1893
     10 C          -5.2431   -3.1437    0.0002 C.1     1  LIG1        0.1191
     11 N          -2.6846    1.5410   -0.0003 N.pl3   1  LIG1       -0.3563
     12 H          -1.8048    1.4799   -0.4718 H       1  LIG1        0.1424
     13 H          -3.2703    2.2002   -0.4718 H       1  LIG1        0.1424
     14 C          -6.8088    1.2233   -0.0003 C.ar    1  LIG1        0.1500
     15 C          -5.4065    1.3366   -0.0004 C.ar    1  LIG1        0.0398
     16 C          -4.8408    2.6129   -0.0003 C.ar    1  LIG1       -0.0255
     17 C          -5.6871    3.7231   -0.0003 C.ar    1  LIG1        0.0694
     18 C          -7.0774    3.5076   -0.0004 C.ar    1  LIG1        0.0963
     19 N          -7.6401    2.2834   -0.0003 N.ar    1  LIG1       -0.2337
     20 H          -3.7491    2.7410   -0.0014 H       1  LIG1        0.0644
     21 N          -7.8881   -0.9724   -0.0003 N.1     1  LIG1       -0.1893
     22 C          -7.3823    0.0566   -0.0003 C.1     1  LIG1        0.1198
     23 N          -5.2095    4.9322   -0.0004 N.pl3   1  LIG1       -0.2605
     24 H          -4.3276    4.9422   -0.4718 H       1  LIG1        0.1679
     25 H          -5.8464    5.5421   -0.4718 H       1  LIG1        0.0581
     26 C          -7.4241    5.8310   -0.0000 C.ar    1  LIG1        0.0735
     27 C          -7.9061    4.5092   -0.0003 C.ar    1  LIG1        0.0270
     28 C          -9.2869    4.3031   -0.0001 C.ar    1  LIG1       -0.0279
     29 C         -10.1321    5.4140    0.0002 C.ar    1  LIG1        0.0516
     30 C          -9.5548    6.6971    0.0002 C.ar    1  LIG1        0.0947
     31 N          -8.2251    6.9141    0.0002 N.ar    1  LIG1       -0.2473
     32 H          -9.7005    3.2847   -0.0012 H       1  LIG1        0.0644
     33 N          -5.0205    6.2878   -0.0002 N.3     1  LIG1       -0.1332
     34 C          -6.1470    6.0737   -0.0001 C.3     1  LIG1        0.1120
     35 N         -11.4247    5.2750    0.0002 N.pl3   1  LIG1       -0.3563
     36 H         -11.8434    6.0512   -0.4712 H       1  LIG1        0.1424
     37 H         -11.6688    4.4276   -0.4713 H       1  LIG1        0.1424
     38 C          -9.7132    9.0408    0.0008 C.ar    1  LIG1        0.1493
     39 C         -10.3001    7.7622    0.0005 C.ar    1  LIG1        0.0397
     40 C         -11.6930    7.6680    0.0008 C.ar    1  LIG1       -0.0276
     41 C         -12.4461    8.8434    0.0012 C.ar    1  LIG1        0.0436
     42 C         -11.7673   10.0758    0.0013 C.ar    1  LIG1        0.0497
     43 N         -10.4244   10.1850    0.0012 N.ar    1  LIG1       -0.2421
     44 H         -12.1874    6.6862   -0.0005 H       1  LIG1        0.0644
     45 H         -12.4244   11.1974    0.0018 H       1  LIG1        0.0849
     46 N          -7.2807    9.3026    0.0005 N.1     1  LIG1       -0.1893
     47 C          -8.4207    9.1799    0.0006 C.1     1  LIG1        0.1198
     48 N         -13.7456    8.8089    0.0013 N.pl3   1  LIG1       -0.3568
     49 H         -14.1005    9.6163   -0.4700 H       1  LIG1        0.1424
     50 H         -14.0573    7.9840   -0.4701 H       1  LIG1        0.1424
@<TRIPOS>BOND
     1    25    34    1
     2    24    23    1
     3    13    11    1
     4    12    11    1
     5    37    35    1
     6    36    35    1
     7    50    48    1
     8    49    48    1
     9    20    16    1
    10    32    28    1
    11     7     3    1
    12    44    40    1
    13    15     5    1
    14    15    14   ar
    15    15    16   ar
    16    18    19   ar
    17    18    27    1
    18    18    17   ar
    19    23    17    1
    20    23    33    1
    21    11     4    1
    22     5     6   ar
    23     5     4   ar
    24    14    22    1
    25    14    19   ar
    26    16    17   ar
    27    22    21    3
    28    27    28   ar
    29    27    26   ar
    30    33    34    1
    31    34    26    1
    32     6     1   ar
    33     4     3   ar
    34    28    29   ar
    35    26    31   ar
    36     1     2   ar
    37     1    10    1
    38     2     3   ar
    39     2     8    1
    40    29    35    1
    41    29    30   ar
    42    30    31   ar
    43    30    39    1
    44    10     9    3
    45    39    40   ar
    46    39    38   ar
    47    46    47    3
    48    47    38    1
    49    40    41   ar
    50    38    43   ar
    51    41    42   ar
    52    41    48    1
    53    43    42   ar
    54    42    45    1
