@<TRIPOS>MOLECULE
mol_data/noopt/geoms/mol2/6dh6dh-4dh6dh.out
 51 56 0 0 0
SMALL
GASTEIGER

@<TRIPOS>ATOM
      1 C          -4.5775   -2.0270    0.0001 C.ar    1  LIG1        0.1408
      2 C          -3.1706   -2.0270    0.0001 C.ar    1  LIG1       -0.0240
      3 C          -2.5039   -0.8004    0.0001 C.ar    1  LIG1       -0.0348
      4 C          -3.2580    0.3743   -0.0001 C.ar    1  LIG1        0.0688
      5 C          -4.6612    0.2715   -0.0003 C.ar    1  LIG1        0.0963
      6 N          -5.3207   -0.9034   -0.0001 N.ar    1  LIG1       -0.2344
      7 H          -1.4054   -0.7607   -0.0009 H       1  LIG1        0.0638
      8 H          -2.5135   -3.1487    0.0004 H       1  LIG1        0.0646
      9 N          -5.8301   -4.1286    0.0003 N.1     1  LIG1       -0.1893
     10 C          -5.2431   -3.1437    0.0002 C.1     1  LIG1        0.1191
     11 N          -2.6846    1.5410   -0.0003 N.pl3   1  LIG1       -0.2605
     12 H          -1.8048    1.4799   -0.4718 H       1  LIG1        0.1679
     13 H          -3.2703    2.2002   -0.4718 H       1  LIG1        0.0581
     14 C          -4.8196    2.6153   -0.0003 C.ar    1  LIG1        0.0735
     15 C          -5.4065    1.3366   -0.0004 C.ar    1  LIG1        0.0270
     16 C          -6.7994    1.2424   -0.0003 C.ar    1  LIG1       -0.0279
     17 C          -7.5524    2.4178   -0.0003 C.ar    1  LIG1        0.0516
     18 C          -6.8736    3.6502   -0.0004 C.ar    1  LIG1        0.0932
     19 N          -5.5307    3.7594   -0.0003 N.ar    1  LIG1       -0.2473
     20 H          -7.2937    0.2606   -0.0014 H       1  LIG1        0.0644
     21 N          -2.3870    2.8770   -0.0002 N.3     1  LIG1       -0.1332
     22 C          -3.5271    2.7543   -0.0003 C.3     1  LIG1        0.1120
     23 N          -8.8520    2.3834   -0.0004 N.pl3   1  LIG1       -0.3563
     24 H          -9.2068    3.1908   -0.4718 H       1  LIG1        0.1424
     25 H          -9.1636    1.5584   -0.4719 H       1  LIG1        0.1424
     26 C          -6.8310    5.9958    0.0005 C.ar    1  LIG1        0.0617
     27 C          -7.5886    7.1830    0.0022 C.ar    1  LIG1       -0.0341
     28 C          -7.5307    4.7718   -0.0003 C.ar    1  LIG1        0.0213
     29 C          -8.9814    7.1551    0.0023 C.ar    1  LIG1        0.0073
     30 H          -7.0688    8.1385    0.0030 H       1  LIG1        0.0637
     31 C          -8.9211    4.7434   -0.0001 C.ar    1  LIG1       -0.0285
     32 C          -9.6560    5.9336    0.0011 C.ar    1  LIG1        0.0512
     33 H          -9.4376    3.7869   -0.0006 H       1  LIG1        0.0643
     34 N          -4.3903    6.1653   -0.0002 N.1     1  LIG1       -0.1908
     35 C          -5.5341    6.0859    0.0002 C.1     1  LIG1        0.0998
     36 N         -10.9556    5.9008    0.0014 N.pl3   1  LIG1       -0.2620
     37 H         -11.3095    6.7086   -0.4699 H       1  LIG1        0.0581
     38 H         -11.2683    5.0762   -0.4699 H       1  LIG1        0.1679
     39 C         -11.0562    8.2567    0.0047 C.ar    1  LIG1        0.0713
     40 C          -9.6493    8.2703    0.0037 C.ar    1  LIG1        0.0087
     41 C          -8.9946    9.5034    0.0047 C.ar    1  LIG1       -0.0300
     42 C          -9.7600   10.6707    0.0063 C.ar    1  LIG1        0.0435
     43 C         -11.1621   10.5543    0.0069 C.ar    1  LIG1        0.0486
     44 N         -11.8102    9.3730    0.0062 N.ar    1  LIG1       -0.2557
     45 H          -7.8965    9.5537    0.0030 H       1  LIG1        0.0643
     46 H         -11.9177   11.6121    0.0085 H       1  LIG1        0.0848
     47 N         -12.2884    6.1430    0.0033 N.3     1  LIG1       -0.1333
     48 C         -11.7109    7.1336    0.0040 C.3     1  LIG1        0.1119
     49 N          -9.1979   11.8429    0.0071 N.pl3   1  LIG1       -0.3568
     50 H          -8.3175   11.7907   -0.4642 H       1  LIG1        0.1424
     51 H          -9.7899   12.4967   -0.4642 H       1  LIG1        0.1424
@<TRIPOS>BOND
     1    25    23    1
     2    24    23    1
     3    13    22    1
     4    12    11    1
     5    38    36    1
     6    37    48    1
     7    51    49    1
     8    50    49    1
     9    20    16    1
    10     7     3    1
    11    33    31    1
    12    15    16   ar
    13    15     5    1
    14    15    14   ar
    15    23    17    1
    16    18    17   ar
    17    18    28    1
    18    18    19   ar
    19    16    17   ar
    20    11    21    1
    21    11     4    1
    22     5     6   ar
    23     5     4   ar
    24    28    31   ar
    25    28    26   ar
    26    14    19   ar
    27    14    22    1
    28    22    21    1
    29    34    35    3
    30     6     1   ar
    31     4     3   ar
    32    31    32   ar
    33     1     2   ar
    34     1    10    1
    35     2     3   ar
    36     2     8    1
    37    35    26    1
    38    10     9    3
    39    26    27   ar
    40    32    36    1
    41    32    29   ar
    42    36    47    1
    43    27    29   ar
    44    27    30    1
    45    29    40    1
    46    45    41    1
    47    47    48    1
    48    40    39   ar
    49    40    41   ar
    50    48    39    1
    51    39    44   ar
    52    41    42   ar
    53    44    43   ar
    54    42    43   ar
    55    42    49    1
    56    43    46    1
