@<TRIPOS>MOLECULE
mol_data/noopt/geoms/mol2/6di13ii(270)4hl(40)13eh(290).out
 57 60 0 0 0
SMALL
GASTEIGER

@<TRIPOS>ATOM
      1 C          -4.5775   -2.0270    0.0001 C.ar    1  LIG1        0.1408
      2 C          -3.1706   -2.0270    0.0001 C.ar    1  LIG1       -0.0255
      3 C          -2.5039   -0.8004    0.0001 C.ar    1  LIG1       -0.0541
      4 C          -3.2580    0.3743   -0.0001 C.ar    1  LIG1       -0.0230
      5 C          -4.6612    0.2715   -0.0003 C.ar    1  LIG1        0.0917
      6 N          -5.3207   -0.9034   -0.0001 N.ar    1  LIG1       -0.2346
      7 H          -1.4054   -0.7607   -0.0009 H       1  LIG1        0.0622
      8 H          -2.5135   -3.1487    0.0004 H       1  LIG1        0.0646
      9 N          -5.8301   -4.1286    0.0003 N.1     1  LIG1       -0.1893
     10 C          -5.2431   -3.1437    0.0002 C.1     1  LIG1        0.1191
     11 C          -2.6845    1.5413   -0.0003 C.3     1  LIG1       -0.0376
     12 H          -3.3112    2.2468    0.5041 H       1  LIG1        0.0278
     13 H          -2.5273    1.8613   -1.0092 H       1  LIG1        0.0278
     14 H          -1.7430    1.4761    0.5040 H       1  LIG1        0.0278
     15 C          -5.4065    1.3366   -0.0004 C.ar    1  LIG1        0.0689
     16 C          -5.9126    2.0589   -1.0349 C.ar    1  LIG1       -0.0202
     17 C          -6.6668    3.1391   -0.4738 C.ar    1  LIG1       -0.0216
     18 C          -6.5899    3.0285    0.8789 C.ar    1  LIG1        0.0520
     19 N          -5.8189    1.9266    1.1731 N.ar    1  LIG1       -0.3525
     20 H          -5.5959    1.6072    2.0876 H       1  LIG1        0.1660
     21 C          -5.7400    1.8121   -2.2999 C.3     1  LIG1       -0.0374
     22 H          -4.6955    1.8428   -2.5301 H       1  LIG1        0.0278
     23 H          -6.2550    2.5487   -2.8805 H       1  LIG1        0.0278
     24 H          -6.1276    0.8416   -2.5300 H       1  LIG1        0.0278
     25 C          -7.3085    4.0580   -1.1332 C.3     1  LIG1       -0.0374
     26 H          -8.3472    4.0195   -0.8793 H       1  LIG1        0.0278
     27 H          -7.1916    3.8906   -2.1836 H       1  LIG1        0.0278
     28 H          -6.9146    5.0199   -0.8793 H       1  LIG1        0.0278
     29 C          -6.2924    4.2371    2.8676 C.ar    1  LIG1        0.0346
     30 C          -6.8990    5.0320    3.8593 C.ar    1  LIG1       -0.0277
     31 C          -7.1057    3.7669    1.8163 C.ar    1  LIG1        0.0227
     32 C          -8.2551    5.3466    3.8082 C.ar    1  LIG1        0.0429
     33 H          -6.2898    5.4051    4.6796 H       1  LIG1        0.0644
     34 C          -8.4596    4.0807    1.7647 C.ar    1  LIG1       -0.0084
     35 C          -9.0437    4.8721    2.7592 C.ar    1  LIG1        0.1299
     36 H          -9.0656    3.7060    0.9438 H       1  LIG1        0.0661
     37 N          -5.0226    3.9776    2.9694 N.pl3   1  LIG1       -0.3574
     38 H          -4.8244    3.1037    2.5255 H       1  LIG1        0.1423
     39 H          -4.4974    4.7036    2.5255 H       1  LIG1        0.1423
     40 O         -10.3098    5.1620    2.7059 O.3     1  LIG1       -0.4944
     41 C         -10.4738    6.5825    2.6862 C.3     1  LIG1        0.0788
     42 H         -11.5160    6.8207    2.6422 H       1  LIG1        0.0660
     43 H         -10.0491    7.0029    3.5739 H       1  LIG1        0.0660
     44 H          -9.9789    6.9868    1.8280 H       1  LIG1        0.0660
     45 C          -8.7825    6.0831    4.7406 C.ar    1  LIG1        0.0675
     46 C          -9.2329    7.3652    4.7028 C.ar    1  LIG1        0.0706
     47 C          -9.7160    7.6875    6.0117 C.ar    1  LIG1        0.0583
     48 C          -9.5412    6.5877    6.7914 C.ar    1  LIG1        0.0242
     49 N          -8.9695    5.6033    6.0173 N.ar    1  LIG1       -0.3579
     50 H          -8.7303    4.6906    6.3303 H       1  LIG1        0.1654
     51 H          -9.8223    6.3890    8.0450 H       1  LIG1        0.0826
     52 C          -9.2236    8.1513    3.6674 C.1     1  LIG1       -0.0657
     53 C          -9.2150    8.8777    2.7108 C.1     1  LIG1       -0.1138
     54 H          -9.2074    9.5247    1.8586 H       1  LIG1        0.1232
     55 N         -10.2284    8.8213    6.3886 N.pl3   1  LIG1       -0.3559
     56 H          -9.6719    9.5728    6.0341 H       1  LIG1        0.1424
     57 H         -11.1600    8.9004    6.0341 H       1  LIG1        0.1424
@<TRIPOS>BOND
     1    23    21    1
     2    22    21    1
     3    24    21    1
     4    21    16    1
     5    27    25    1
     6    25    28    1
     7    25    26    1
     8    25    17    1
     9    16    17   ar
    10    16    15   ar
    11    13    11    1
    12    17    18   ar
    13     7     3    1
    14    15     5    1
    15    15    19   ar
    16    11     4    1
    17    11    14    1
    18    11    12    1
    19     5     6   ar
    20     5     4   ar
    21     6     1   ar
    22     4     3   ar
    23     1     2   ar
    24     1    10    1
    25     3     2   ar
    26     2     8    1
    27    10     9    3
    28    18    19   ar
    29    18    31    1
    30    36    34    1
    31    19    20    1
    32    34    31   ar
    33    34    35   ar
    34    31    29   ar
    35    44    41    1
    36    54    53    1
    37    39    37    1
    38    38    37    1
    39    42    41    1
    40    41    40    1
    41    41    43    1
    42    40    35    1
    43    53    52    3
    44    35    32   ar
    45    29    37    1
    46    29    30   ar
    47    52    46    1
    48    32    30   ar
    49    32    45    1
    50    30    33    1
    51    46    45   ar
    52    46    47   ar
    53    45    49   ar
    54    47    55    1
    55    47    48   ar
    56    49    50    1
    57    49    48   ar
    58    57    55    1
    59    56    55    1
    60    48    51    1
