@<TRIPOS>MOLECULE
mol_data/noopt/geoms/mol2/6di12hd(190)12al13af(320).out
 45 48 0 0 0
SMALL
GASTEIGER

@<TRIPOS>ATOM
      1 C          -4.5775   -2.0270    0.0001 C.ar    1  LIG1        0.1409
      2 C          -3.1706   -2.0270    0.0001 C.ar    1  LIG1       -0.0255
      3 C          -2.5039   -0.8004    0.0001 C.ar    1  LIG1       -0.0540
      4 C          -3.2580    0.3743   -0.0001 C.ar    1  LIG1       -0.0213
      5 C          -4.6612    0.2715   -0.0003 C.ar    1  LIG1        0.1122
      6 N          -5.3207   -0.9034   -0.0001 N.ar    1  LIG1       -0.2329
      7 H          -1.4054   -0.7607   -0.0009 H       1  LIG1        0.0622
      8 H          -2.5135   -3.1487    0.0004 H       1  LIG1        0.0646
      9 N          -5.8301   -4.1286    0.0003 N.1     1  LIG1       -0.1893
     10 C          -5.2431   -3.1437    0.0002 C.1     1  LIG1        0.1191
     11 C          -2.6845    1.5413   -0.0003 C.3     1  LIG1       -0.0376
     12 H          -3.3112    2.2468    0.5041 H       1  LIG1        0.0278
     13 H          -2.5273    1.8613   -1.0092 H       1  LIG1        0.0278
     14 H          -1.7430    1.4761    0.5040 H       1  LIG1        0.0278
     15 C          -5.4065    1.3366   -0.0004 C.ar    1  LIG1        0.1760
     16 C          -6.7537    1.5942   -0.1481 C.ar    1  LIG1        0.0909
     17 C          -6.9158    3.0292   -0.0417 C.ar    1  LIG1        0.1218
     18 C          -5.6563    3.5536    0.1642 C.ar    1  LIG1        0.1899
     19 O          -4.7089    2.5297    0.1937 O.2     1  LIG1       -0.4469
     20 N          -7.7108    0.7367   -0.3453 N.pl3   1  LIG1       -0.3540
     21 H          -8.4477    1.1727   -0.8618 H       1  LIG1        0.1425
     22 H          -7.3581   -0.0435   -0.8618 H       1  LIG1        0.1425
     23 N          -9.0353    4.2406   -0.2028 N.1     1  LIG1       -0.1907
     24 C          -8.0420    3.6728   -0.1273 C.1     1  LIG1        0.1050
     25 C          -5.1653    4.7456    0.3319 C.ar    1  LIG1        0.1757
     26 C          -3.9002    5.2771    0.4733 C.ar    1  LIG1        0.0298
     27 C          -4.0660    6.7075    0.6263 C.ar    1  LIG1        0.1678
     28 C          -5.4220    6.9553    0.5681 C.ar    1  LIG1        0.1933
     29 O          -6.1208    5.7613    0.3869 O.2     1  LIG1       -0.4464
     30 H          -2.7658    4.6421    0.4732 H       1  LIG1        0.0693
     31 O          -3.1053    7.5687    0.7861 O.3     1  LIG1       -0.4912
     32 C          -1.8528    6.8812    0.8446 C.3     1  LIG1        0.0790
     33 H          -1.0624    7.5904    0.9760 H       1  LIG1        0.0660
     34 H          -1.8592    6.1978    1.6680 H       1  LIG1        0.0660
     35 H          -1.6995    6.3409   -0.0661 H       1  LIG1        0.0660
     36 C          -6.1743    8.0130    0.6410 C.ar    1  LIG1        0.0894
     37 C          -6.0381    9.2339    0.0591 C.ar    1  LIG1        0.0083
     38 C          -7.1506   10.0331    0.4765 C.ar    1  LIG1        0.1348
     39 C          -7.9186    9.2648    1.2938 C.ar    1  LIG1        0.0442
     40 N          -7.3243    8.0274    1.3976 N.ar    1  LIG1       -0.3551
     41 H          -7.6708    7.2652    1.9333 H       1  LIG1        0.1655
     42 H          -9.0256    9.5415    1.9167 H       1  LIG1        0.0844
     43 H          -5.0733    9.6046   -0.7294 H       1  LIG1        0.0676
     44 O          -7.3864   11.2660    0.1381 O.3     1  LIG1       -0.5053
     45 H          -8.3334   11.3999    0.0547 H       1  LIG1        0.2922
@<TRIPOS>BOND
     1    13    11    1
     2    22    20    1
     3    21    20    1
     4    43    37    1
     5    20    16    1
     6    23    24    3
     7    16    17   ar
     8    16    15   ar
     9    24    17    1
    10    35    32    1
    11    17    18   ar
    12     7     3    1
    13    15     5    1
    14    15    19   ar
    15    11     4    1
    16    11    14    1
    17    11    12    1
    18     5     6   ar
    19     5     4   ar
    20     6     1   ar
    21     4     3   ar
    22     1     2   ar
    23     1    10    1
    24     2     3   ar
    25     2     8    1
    26    10     9    3
    27    45    44    1
    28    37    38   ar
    29    37    36   ar
    30    44    38    1
    31    18    19   ar
    32    18    25    1
    33    25    29   ar
    34    25    26   ar
    35    29    28   ar
    36    30    26    1
    37    26    27   ar
    38    38    39   ar
    39    28    27   ar
    40    28    36    1
    41    27    31    1
    42    36    40   ar
    43    31    32    1
    44    32    33    1
    45    32    34    1
    46    39    40   ar
    47    39    42    1
    48    40    41    1
