@<TRIPOS>MOLECULE
mol_data/noopt/geoms/mol2/6di12he6ah13li.out
 52 51 0 0 0
SMALL
GASTEIGER

@<TRIPOS>ATOM
      1 C          -4.5775   -2.0270    0.0001 C.ar    1  LIG1        0.1409
      2 C          -3.1706   -2.0270    0.0001 C.ar    1  LIG1       -0.0255
      3 C          -2.5039   -0.8004    0.0001 C.ar    1  LIG1       -0.0540
      4 C          -3.2580    0.3743   -0.0001 C.ar    1  LIG1       -0.0213
      5 C          -4.6612    0.2715   -0.0003 C.ar    1  LIG1        0.1122
      6 N          -5.3207   -0.9034   -0.0001 N.ar    1  LIG1       -0.2329
      7 H          -1.4054   -0.7607   -0.0009 H       1  LIG1        0.0622
      8 H          -2.5135   -3.1487    0.0004 H       1  LIG1        0.0646
      9 N          -5.8301   -4.1286    0.0003 N.1     1  LIG1       -0.1893
     10 C          -5.2431   -3.1437    0.0002 C.1     1  LIG1        0.1191
     11 C          -2.6845    1.5413   -0.0003 C.3     1  LIG1       -0.0376
     12 H          -3.3112    2.2468    0.5041 H       1  LIG1        0.0278
     13 H          -2.5273    1.8613   -1.0092 H       1  LIG1        0.0278
     14 H          -1.7430    1.4761    0.5040 H       1  LIG1        0.0278
     15 C          -5.4065    1.3366   -0.0004 C.ar    1  LIG1        0.1758
     16 C          -5.1776    2.6970   -0.0005 C.ar    1  LIG1        0.0888
     17 C          -6.4770    3.3362   -0.0006 C.ar    1  LIG1        0.0914
     18 C          -7.4141    2.3236   -0.0007 C.ar    1  LIG1        0.1511
     19 O          -6.7786    1.0814   -0.0006 O.2     1  LIG1       -0.4504
     20 N          -4.0318    3.3111   -0.0004 N.pl3   1  LIG1       -0.3540
     21 H          -3.3523    2.7489   -0.4717 H       1  LIG1        0.1425
     22 H          -4.1236    4.1882   -0.4718 H       1  LIG1        0.1425
     23 C          -6.6905    4.6186   -0.0007 C.1     1  LIG1       -0.0640
     24 C          -6.8877    5.8035   -0.0007 C.1     1  LIG1       -0.1137
     25 H          -7.0635    6.8590   -0.0008 H       1  LIG1        0.1232
     26 C          -9.3668    1.0177   -0.0006 C.3     1  LIG1        0.1064
     27 C          -8.7127    2.2633   -0.0007 C.2     1  LIG1        0.0228
     28 C          -9.4887    3.4238   -0.0006 C.2     1  LIG1       -0.0525
     29 C         -10.8793    3.3023   -0.0005 C.3     2  LIG2        0.0000
     30 C         -11.4407    2.0122   -0.0006 C.2     1  LIG1        0.1132
     31 N         -10.7071    0.8821   -0.0005 N.2     1  LIG1       -0.2690
     32 H          -9.0132    4.4148   -0.0017 H       1  LIG1        0.0622
     33 H          -8.6875   -0.0908   -0.0006 H       1  LIG1        0.0620
     34 N         -11.6457    4.3524   -0.0006 N.3     3  LIG3       -0.3437
     35 H         -11.1827    5.1030   -0.4720 H       2  LIG2        0.1146
     36 H         -12.5017    4.1403   -0.4720 H       3  LIG3        0.0265
     37 C         -12.7302    1.8475   -0.0004 C.ar    1  LIG1        0.1142
     38 C         -13.7361    2.7618    0.0159 C.ar    1  LIG1        0.2085
     39 C         -14.9718    2.0382    0.0084 C.ar    1  LIG1        0.0142
     40 C         -14.6668    0.7137   -0.0140 C.ar    1  LIG1        0.0089
     41 N         -13.2955    0.5924   -0.0190 N.ar    1  LIG1       -0.3561
     42 H         -12.7932   -0.2653   -0.0343 H       1  LIG1        0.1655
     43 H         -15.4414   -0.3303   -0.0284 H       1  LIG1        0.0811
     44 O         -13.5977    4.0543    0.0363 O.3     1  LIG1       -0.2853
     45 C         -12.2066    4.3853    0.0437 C.3     4  LIG4       -0.0531
     46 H         -12.0931    5.4491    0.0603 H       3  LIG3        0.0265
     47 H         -11.7442    3.9637    0.9117 H       2  LIG2        0.1146
     48 H         -11.7413    3.9907   -0.8354 H       2  LIG2        0.1146
     49 C         -16.1671    2.5501    0.0202 C.3     1  LIG1       -0.0346
     50 H         -16.8347    1.8856    0.5278 H       1  LIG1        0.0279
     51 H         -16.5034    2.6941   -0.9854 H       1  LIG1        0.0279
     52 H         -16.1467    3.4918    0.5278 H       1  LIG1        0.0279
@<TRIPOS>BOND
     1    13    11    1
     2    51    49    1
     3    48    34    1
     4    36    45    1
     5    35    34    1
     6    22    20    1
     7    21    20    1
     8    42    41    1
     9    43    40    1
    10    41    40   ar
    11    41    37   ar
    12    40    39   ar
    13    32    28    1
    14     7     3    1
    15    25    24    1
    16    24    23    3
    17    27    18    1
    18    27    26    1
    19    27    28    2
    20    23    17    1
    21    18    19   ar
    22    18    17   ar
    23    19    15   ar
    24    33    26    1
    25    30    31    2
    26    30    37    1
    27    17    16   ar
    28    26    31    1
    29    34    47    1
    30    16    15   ar
    31    16    20    1
    32    37    38   ar
    33    15     5    1
    34    11     4    1
    35    11    14    1
    36    11    12    1
    37     5     6   ar
    38     5     4   ar
    39     6     1   ar
    40     4     3   ar
    41     1     2   ar
    42     1    10    1
    43     3     2   ar
    44     2     8    1
    45    10     9    3
    46    39    38   ar
    47    39    49    1
    48    38    44    1
    49    49    52    1
    50    49    50    1
    51    45    46    1
