@<TRIPOS>MOLECULE
mol_data/noopt/geoms/mol2/6di13la(200)13di(240)6ld(160).out
 53 56 0 0 0
SMALL
GASTEIGER

@<TRIPOS>ATOM
      1 C          -4.5775   -2.0270    0.0001 C.ar    1  LIG1        0.1408
      2 C          -3.1706   -2.0270    0.0001 C.ar    1  LIG1       -0.0255
      3 C          -2.5039   -0.8004    0.0001 C.ar    1  LIG1       -0.0541
      4 C          -3.2580    0.3743   -0.0001 C.ar    1  LIG1       -0.0228
      5 C          -4.6612    0.2715   -0.0003 C.ar    1  LIG1        0.0950
      6 N          -5.3207   -0.9034   -0.0001 N.ar    1  LIG1       -0.2345
      7 H          -1.4054   -0.7607   -0.0009 H       1  LIG1        0.0622
      8 H          -2.5135   -3.1487    0.0004 H       1  LIG1        0.0646
      9 N          -5.8301   -4.1286    0.0003 N.1     1  LIG1       -0.1893
     10 C          -5.2431   -3.1437    0.0002 C.1     1  LIG1        0.1191
     11 C          -2.6845    1.5413   -0.0003 C.3     1  LIG1       -0.0376
     12 H          -3.3112    2.2468    0.5041 H       1  LIG1        0.0278
     13 H          -2.5273    1.8613   -1.0092 H       1  LIG1        0.0278
     14 H          -1.7430    1.4761    0.5040 H       1  LIG1        0.0278
     15 C          -5.4065    1.3366   -0.0004 C.ar    1  LIG1        0.1079
     16 C          -6.7160    1.4967   -0.3285 C.ar    1  LIG1        0.1474
     17 C          -7.0349    2.8815   -0.1517 C.ar    1  LIG1        0.0073
     18 C          -5.9068    3.5064    0.2783 C.ar    1  LIG1        0.0645
     19 N          -4.9073    2.5644    0.3718 N.ar    1  LIG1       -0.3490
     20 H          -3.9736    2.7423    0.6626 H       1  LIG1        0.1661
     21 O          -7.5260    0.5625   -0.7299 O.3     1  LIG1       -0.4929
     22 C          -8.8419    1.1026   -0.8774 C.3     1  LIG1        0.0789
     23 H          -9.5082    0.3335   -1.2080 H       1  LIG1        0.0660
     24 H          -9.1779    1.4854    0.0637 H       1  LIG1        0.0660
     25 H          -8.8242    1.8933   -1.5981 H       1  LIG1        0.0660
     26 H          -8.1892    3.4414   -0.3620 H       1  LIG1        0.0676
     27 C          -5.6946    4.7542    0.5753 C.2     1  LIG1        0.0567
     28 C          -6.0597    5.8902   -0.0760 C.2     1  LIG1        0.0780
     29 C          -5.5676    6.9975    0.6870 C.2     1  LIG1       -0.0109
     30 C          -4.9250    6.4896    1.7719 C.2     1  LIG1        0.0317
     31 N          -5.0000    5.1165    1.7072 N.pl3   1  LIG1       -0.3770
     32 H          -4.6143    4.4867    2.3725 H       1  LIG1        0.1286
     33 N          -7.3224    6.0126   -2.1680 N.1     1  LIG1       -0.1908
     34 C          -6.7307    5.9552   -1.1876 C.1     1  LIG1        0.1014
     35 C          -5.7079    8.2577    0.3988 C.3     1  LIG1       -0.0367
     36 H          -6.6271    8.6178    0.8116 H       1  LIG1        0.0278
     37 H          -5.7218    8.3812   -0.6640 H       1  LIG1        0.0278
     38 H          -4.8905    8.8111    0.8116 H       1  LIG1        0.0278
     39 C          -2.9593    6.8297    3.0123 C.ar    1  LIG1        0.2240
     40 C          -4.3165    7.0916    2.7503 C.ar    1  LIG1        0.0577
     41 C          -4.9875    8.0081    3.5621 C.ar    1  LIG1       -0.0289
     42 C          -4.2866    8.6264    4.5990 C.ar    1  LIG1        0.0707
     43 C          -2.9306    8.2986    4.7819 C.ar    1  LIG1        0.0488
     44 N          -2.2678    7.4170    4.0081 N.ar    1  LIG1       -0.2195
     45 H          -6.0484    8.2375    3.3885 H       1  LIG1        0.0639
     46 H          -2.2358    8.8478    5.7335 H       1  LIG1        0.0844
     47 O          -2.2918    5.9845    2.2841 O.3     1  LIG1       -0.4725
     48 C          -3.1048    4.8389    2.0167 C.3     1  LIG1        0.1252
     49 H          -2.5551    4.1436    1.4172 H       1  LIG1        0.0731
     50 H          -3.3804    4.3737    2.9400 H       1  LIG1        0.0731
     51 H          -3.9871    5.1420    1.4927 H       1  LIG1        0.1286
     52 N          -5.3775   10.2453    6.0737 N.1     1  LIG1       -0.1908
     53 C          -4.8662    9.4866    5.3826 C.1     1  LIG1        0.1007
@<TRIPOS>BOND
     1    33    34    3
     2    25    22    1
     3    23    22    1
     4    34    28    1
     5    13    11    1
     6    22    21    1
     7    22    24    1
     8    21    16    1
     9    37    35    1
    10    26    17    1
    11    16    17   ar
    12    16    15   ar
    13    17    18   ar
    14    28    27    2
    15    28    29    1
    16     7     3    1
    17    15     5    1
    18    15    19   ar
    19    11     4    1
    20    11    14    1
    21    11    12    1
    22     5     4   ar
    23     5     6   ar
    24     4     3   ar
    25     6     1   ar
    26     2     3   ar
    27     2     1   ar
    28     2     8    1
    29     1    10    1
    30    10     9    3
    31    18    19   ar
    32    18    27    1
    33    19    20    1
    34    35    29    1
    35    35    38    1
    36    35    36    1
    37    27    31    1
    38    29    30    2
    39    49    48    1
    40    51    31    1
    41    31    30    1
    42    31    32    1
    43    30    40    1
    44    48    47    1
    45    48    50    1
    46    47    39    1
    47    40    39   ar
    48    40    41   ar
    49    39    44   ar
    50    45    41    1
    51    41    42   ar
    52    44    43   ar
    53    42    43   ar
    54    42    53    1
    55    43    46    1
    56    53    52    3
