@<TRIPOS>MOLECULE
mol_data/noopt/geoms/mol2/6di13le(240)6eh(130)13li(230).out
 57 60 0 0 0
SMALL
GASTEIGER

@<TRIPOS>ATOM
      1 C          -4.5775   -2.0270    0.0001 C.ar    1  LIG1        0.1408
      2 C          -3.1706   -2.0270    0.0001 C.ar    1  LIG1       -0.0255
      3 C          -2.5039   -0.8004    0.0001 C.ar    1  LIG1       -0.0541
      4 C          -3.2580    0.3743   -0.0001 C.ar    1  LIG1       -0.0228
      5 C          -4.6612    0.2715   -0.0003 C.ar    1  LIG1        0.0951
      6 N          -5.3207   -0.9034   -0.0001 N.ar    1  LIG1       -0.2345
      7 H          -1.4054   -0.7607   -0.0009 H       1  LIG1        0.0622
      8 H          -2.5135   -3.1487    0.0004 H       1  LIG1        0.0646
      9 N          -5.8301   -4.1286    0.0003 N.1     1  LIG1       -0.1893
     10 C          -5.2431   -3.1437    0.0002 C.1     1  LIG1        0.1191
     11 C          -2.6845    1.5413   -0.0003 C.3     1  LIG1       -0.0376
     12 H          -3.3112    2.2468    0.5041 H       1  LIG1        0.0278
     13 H          -2.5273    1.8613   -1.0092 H       1  LIG1        0.0278
     14 H          -1.7430    1.4761    0.5040 H       1  LIG1        0.0278
     15 C          -5.4065    1.3366   -0.0004 C.ar    1  LIG1        0.1091
     16 C          -6.3630    1.7437   -0.8764 C.ar    1  LIG1        0.1627
     17 C          -6.8730    2.9948   -0.4019 C.ar    1  LIG1        0.0922
     18 C          -6.2069    3.2965    0.7441 C.ar    1  LIG1        0.0689
     19 N          -5.3078    2.2842    0.9933 N.ar    1  LIG1       -0.3490
     20 H          -4.6865    2.2436    1.7682 H       1  LIG1        0.1661
     21 O          -6.7413    1.1115   -1.9476 O.3     1  LIG1       -0.4917
     22 C          -8.0369    1.5717   -2.3408 C.3     1  LIG1        0.0789
     23 H          -8.3478    1.0512   -3.2225 H       1  LIG1        0.0660
     24 H          -8.7359    1.3862   -1.5521 H       1  LIG1        0.0660
     25 H          -7.9965    2.6218   -2.5421 H       1  LIG1        0.0660
     26 C          -7.8017    3.7125   -0.9608 C.1     1  LIG1       -0.0638
     27 C          -8.6599    4.3756   -1.4773 C.1     1  LIG1       -0.1137
     28 H          -9.4243    4.9663   -1.9373 H       1  LIG1        0.1232
     29 C          -5.6564    5.5267    1.2355 C.ar    1  LIG1        0.1231
     30 C          -6.3145    4.3205    1.5378 C.ar    1  LIG1        0.0352
     31 C          -7.0804    4.2527    2.7030 C.ar    1  LIG1       -0.0271
     32 C          -7.1624    5.3817    3.5199 C.ar    1  LIG1        0.0532
     33 C          -6.4678    6.5424    3.1329 C.ar    1  LIG1        0.1126
     34 N          -5.7245    6.6253    2.0122 N.ar    1  LIG1       -0.2343
     35 H          -7.6082    3.3270    2.9726 H       1  LIG1        0.0644
     36 C          -4.9317    5.6387    0.1621 C.1     1  LIG1       -0.0491
     37 C          -4.2621    5.7422   -0.8298 C.1     1  LIG1       -0.1124
     38 H          -3.6657    5.8343   -1.7134 H       1  LIG1        0.1232
     39 N          -7.8624    5.3693    4.6153 N.pl3   1  LIG1       -0.3563
     40 H          -8.4535    6.1754    4.6423 H       1  LIG1        0.1424
     41 H          -8.4245    4.5427    4.6423 H       1  LIG1        0.1424
     42 C          -6.5133    7.6189    3.8603 C.ar    1  LIG1        0.1093
     43 C          -7.2592    8.7468    3.7207 C.ar    1  LIG1        0.1497
     44 C          -6.9167    9.6225    4.8008 C.ar    1  LIG1        0.0092
     45 C          -5.9779    8.9905    5.5539 C.ar    1  LIG1        0.0087
     46 N          -5.7277    7.7637    4.9814 N.ar    1  LIG1       -0.3562
     47 H          -5.0826    7.0893    5.3237 H       1  LIG1        0.1655
     48 H          -5.3613    9.3760    6.6315 H       1  LIG1        0.0811
     49 O          -8.1223    8.9839    2.7779 O.3     1  LIG1       -0.4927
     50 C          -8.0821   10.3708    2.4317 C.3     1  LIG1        0.0789
     51 H          -8.7925   10.5654    1.6556 H       1  LIG1        0.0660
     52 H          -8.3229   10.9602    3.2917 H       1  LIG1        0.0660
     53 H          -7.1009   10.6245    2.0888 H       1  LIG1        0.0660
     54 C          -7.4106   10.8045    5.0236 C.3     1  LIG1       -0.0348
     55 H          -8.3189   10.7121    5.5817 H       1  LIG1        0.0279
     56 H          -7.6128   11.2882    4.0908 H       1  LIG1        0.0279
     57 H          -6.7066   11.3858    5.5816 H       1  LIG1        0.0279
@<TRIPOS>BOND
     1    23    22    1
     2    25    22    1
     3    22    21    1
     4    22    24    1
     5    21    16    1
     6    28    27    1
     7    38    37    1
     8    27    26    3
     9    13    11    1
    10    26    17    1
    11    16    17   ar
    12    16    15   ar
    13    37    36    3
    14    17    18   ar
    15     7     3    1
    16    15     5    1
    17    15    19   ar
    18    11     4    1
    19    11    14    1
    20    11    12    1
    21     5     6   ar
    22     5     4   ar
    23     6     1   ar
    24     4     3   ar
    25     1     2   ar
    26     1    10    1
    27     3     2   ar
    28     2     8    1
    29    10     9    3
    30    36    29    1
    31    18    19   ar
    32    18    30    1
    33    19    20    1
    34    29    30   ar
    35    29    34   ar
    36    30    31   ar
    37    51    50    1
    38    34    33   ar
    39    53    50    1
    40    50    49    1
    41    50    52    1
    42    31    35    1
    43    31    32   ar
    44    49    43    1
    45    33    32   ar
    46    33    42    1
    47    32    39    1
    48    43    42   ar
    49    43    44   ar
    50    42    46   ar
    51    56    54    1
    52    39    40    1
    53    39    41    1
    54    44    54    1
    55    44    45   ar
    56    46    47    1
    57    46    45   ar
    58    54    57    1
    59    54    55    1
    60    45    48    1
