@<TRIPOS>MOLECULE
mol_data/noopt/geoms/mol2/6di13fh-12eh6aa-.out
 46 49 0 0 0
SMALL
GASTEIGER

@<TRIPOS>ATOM
      1 C          -4.5775   -2.0270    0.0001 C.ar    1  LIG1        0.1408
      2 C          -3.1706   -2.0270    0.0001 C.ar    1  LIG1       -0.0255
      3 C          -2.5039   -0.8004    0.0001 C.ar    1  LIG1       -0.0541
      4 C          -3.2580    0.3743   -0.0001 C.ar    1  LIG1       -0.0228
      5 C          -4.6612    0.2715   -0.0003 C.ar    1  LIG1        0.0951
      6 N          -5.3207   -0.9034   -0.0001 N.ar    1  LIG1       -0.2345
      7 H          -1.4054   -0.7607   -0.0009 H       1  LIG1        0.0622
      8 H          -2.5135   -3.1487    0.0004 H       1  LIG1        0.0646
      9 N          -5.8301   -4.1286    0.0003 N.1     1  LIG1       -0.1893
     10 C          -5.2431   -3.1437    0.0002 C.1     1  LIG1        0.1191
     11 C          -2.6845    1.5413   -0.0003 C.3     1  LIG1       -0.0376
     12 H          -3.3112    2.2468    0.5041 H       1  LIG1        0.0278
     13 H          -2.5273    1.8613   -1.0092 H       1  LIG1        0.0278
     14 H          -1.7430    1.4761    0.5040 H       1  LIG1        0.0278
     15 C          -5.4065    1.3366   -0.0004 C.ar    1  LIG1        0.1096
     16 C          -5.0647    2.6523    0.0158 C.ar    1  LIG1        0.1651
     17 C          -6.2798    3.4100    0.0080 C.ar    1  LIG1        0.0960
     18 C          -7.3107    2.5241   -0.0144 C.ar    1  LIG1        0.1085
     19 N          -6.7805    1.2536   -0.0191 N.ar    1  LIG1       -0.3461
     20 H          -7.3063    0.4102   -0.0343 H       1  LIG1        0.1662
     21 O          -3.8561    3.1306    0.0362 O.3     1  LIG1       -0.5030
     22 H          -3.8912    4.0900    0.0412 H       1  LIG1        0.2923
     23 N          -6.3823    4.7059    0.0196 N.pl3   1  LIG1       -0.3534
     24 H          -5.5949    5.1067   -0.4488 H       1  LIG1        0.1425
     25 H          -7.2228    4.9780   -0.4488 H       1  LIG1        0.1425
     26 C          -8.5950    2.7246   -0.0290 C.ar    1  LIG1        0.1708
     27 C          -9.4176    3.8320   -0.0252 C.ar    1  LIG1        0.0931
     28 C         -10.7785    3.3380   -0.0501 C.ar    1  LIG1        0.0873
     29 C         -10.6973    1.9608   -0.0675 C.ar    1  LIG1        0.1590
     30 O          -9.3614    1.5585   -0.0551 O.2     1  LIG1       -0.4501
     31 C          -9.0667    5.0836   -0.0036 C.1     1  LIG1       -0.0639
     32 C          -8.7426    6.2401    0.0163 C.1     1  LIG1       -0.1137
     33 H          -8.4539    7.2702    0.0340 H       1  LIG1        0.1232
     34 N         -11.8512    4.0725   -0.0547 N.pl3   1  LIG1       -0.3541
     35 H         -11.6635    4.9335   -0.5273 H       1  LIG1        0.1425
     36 H         -12.5861    3.5862   -0.5273 H       1  LIG1        0.1425
     37 C         -11.1080   -0.3514   -0.1266 C.ar    1  LIG1        0.0383
     38 C         -11.5533    0.9827   -0.0921 C.ar    1  LIG1        0.0372
     39 C         -12.9279    1.2267   -0.0848 C.ar    1  LIG1       -0.0481
     40 C         -13.8035    0.1399   -0.1120 C.ar    1  LIG1       -0.0429
     41 C         -13.2618   -1.1582   -0.1458 C.ar    1  LIG1        0.0276
     42 N         -11.9385   -1.4117   -0.1532 N.ar    1  LIG1       -0.2626
     43 H         -13.3133    2.2558   -0.0591 H       1  LIG1        0.0626
     44 H         -14.0361   -2.2020   -0.1719 H       1  LIG1        0.0829
     45 H          -9.8380   -0.6291   -0.1346 H       1  LIG1        0.0837
     46 H         -15.0917    0.3144   -0.1067 H       1  LIG1        0.0633
@<TRIPOS>BOND
     1    13    11    1
     2    36    34    1
     3    35    34    1
     4    25    23    1
     5    24    23    1
     6    44    41    1
     7    42    41   ar
     8    42    37   ar
     9    41    40   ar
    10    45    37    1
    11    37    38   ar
    12    40    46    1
    13    40    39   ar
    14    38    39   ar
    15    38    29    1
    16    39    43    1
    17    29    30   ar
    18    29    28   ar
    19    30    26   ar
    20    34    28    1
    21    28    27   ar
    22    20    19    1
    23    26    27   ar
    24    26    18    1
    25    27    31    1
    26    19    18   ar
    27    19    15   ar
    28    18    17   ar
    29    31    32    3
    30     7     3    1
    31    15     5    1
    32    15    16   ar
    33    11     4    1
    34    11    14    1
    35    11    12    1
    36     5     6   ar
    37     5     4   ar
    38     6     1   ar
    39     4     3   ar
    40     1     2   ar
    41     1    10    1
    42     3     2   ar
    43     2     8    1
    44    10     9    3
    45    17    16   ar
    46    17    23    1
    47    16    21    1
    48    32    33    1
    49    21    22    1
