@<TRIPOS>MOLECULE
mol_data/noopt/geoms/mol2/6di13dd-12il-4he.out
 53 56 0 0 0
SMALL
GASTEIGER

@<TRIPOS>ATOM
      1 C          -4.5775   -2.0270    0.0001 C.ar    1  LIG1        0.1408
      2 C          -3.1706   -2.0270    0.0001 C.ar    1  LIG1       -0.0255
      3 C          -2.5039   -0.8004    0.0001 C.ar    1  LIG1       -0.0541
      4 C          -3.2580    0.3743   -0.0001 C.ar    1  LIG1       -0.0229
      5 C          -4.6612    0.2715   -0.0003 C.ar    1  LIG1        0.0928
      6 N          -5.3207   -0.9034   -0.0001 N.ar    1  LIG1       -0.2346
      7 H          -1.4054   -0.7607   -0.0009 H       1  LIG1        0.0622
      8 H          -2.5135   -3.1487    0.0004 H       1  LIG1        0.0646
      9 N          -5.8301   -4.1286    0.0003 N.1     1  LIG1       -0.1893
     10 C          -5.2431   -3.1437    0.0002 C.1     1  LIG1        0.1191
     11 C          -2.6845    1.5413   -0.0003 C.3     1  LIG1       -0.0376
     12 H          -3.3112    2.2468    0.5041 H       1  LIG1        0.0278
     13 H          -2.5273    1.8613   -1.0092 H       1  LIG1        0.0278
     14 H          -1.7430    1.4761    0.5040 H       1  LIG1        0.0278
     15 C          -5.4065    1.3366   -0.0004 C.ar    1  LIG1        0.0846
     16 C          -5.0647    2.6523    0.0158 C.ar    1  LIG1        0.0965
     17 C          -6.2798    3.4100    0.0080 C.ar    1  LIG1        0.0980
     18 C          -7.3107    2.5241   -0.0144 C.ar    1  LIG1        0.1018
     19 N          -6.7805    1.2536   -0.0191 N.ar    1  LIG1       -0.3485
     20 H          -7.3063    0.4102   -0.0343 H       1  LIG1        0.1661
     21 N          -2.7901    3.5526    0.0542 N.1     1  LIG1       -0.1908
     22 C          -3.8561    3.1306    0.0362 C.1     1  LIG1        0.1027
     23 N          -6.4726    5.8488    0.0299 N.1     1  LIG1       -0.1908
     24 C          -6.3823    4.7059    0.0196 C.1     1  LIG1        0.1027
     25 C          -8.5950    2.7246   -0.0290 C.ar    1  LIG1        0.1596
     26 C          -9.4174    3.8321   -0.0400 C.ar    1  LIG1        0.0391
     27 C         -10.7785    3.3380   -0.0542 C.ar    1  LIG1        0.1692
     28 C         -10.6975    1.9607   -0.0510 C.ar    1  LIG1        0.1792
     29 O          -9.3616    1.5584   -0.0356 O.2     1  LIG1       -0.4492
     30 C          -9.0662    5.0841   -0.0382 C.3     1  LIG1       -0.0325
     31 H          -9.8113    5.6628    0.4668 H       1  LIG1        0.0280
     32 H          -8.9696    5.4289   -1.0465 H       1  LIG1        0.0280
     33 H          -8.1289    5.1909    0.4667 H       1  LIG1        0.0280
     34 O         -11.8511    4.0726   -0.0674 O.3     1  LIG1       -0.4910
     35 C         -11.4832    5.4544   -0.0723 C.3     1  LIG1        0.0790
     36 H         -12.3662    6.0586   -0.0833 H       1  LIG1        0.0660
     37 H         -10.9114    5.6744    0.8050 H       1  LIG1        0.0660
     38 H         -10.8966    5.6643   -0.9422 H       1  LIG1        0.0660
     39 C         -12.9362    1.2591   -0.0623 C.ar    1  LIG1        0.0355
     40 C         -13.8227    0.1649   -0.0692 C.ar    1  LIG1       -0.0392
     41 C         -11.5537    0.9825   -0.0588 C.ar    1  LIG1        0.0427
     42 C         -13.3556   -1.1475   -0.0731 C.ar    1  LIG1       -0.0446
     43 H         -14.8936    0.3557   -0.0718 H       1  LIG1        0.0636
     44 C         -11.0868   -0.3275   -0.0628 C.ar    1  LIG1       -0.0338
     45 C         -11.9834   -1.4011   -0.0700 C.ar    1  LIG1        0.0255
     46 H         -10.0161   -0.5148   -0.0599 H       1  LIG1        0.0637
     47 H         -14.2023   -2.1340   -0.0796 H       1  LIG1        0.0630
     48 N         -13.4319    2.4609   -0.0591 N.pl3   1  LIG1       -0.3574
     49 H         -12.8046    3.0814   -0.5297 H       1  LIG1        0.1423
     50 H         -14.3142    2.4588   -0.5298 H       1  LIG1        0.1423
     51 C         -11.5412   -2.6235   -0.0735 C.1     1  LIG1       -0.0696
     52 C         -11.1326   -3.7531   -0.0768 C.1     1  LIG1       -0.1139
     53 H         -10.7686   -4.7593   -0.0796 H       1  LIG1        0.1232
@<TRIPOS>BOND
     1    32    30    1
     2    13    11    1
     3    38    35    1
     4    50    48    1
     5    49    48    1
     6    36    35    1
     7    47    42    1
     8    53    52    1
     9    52    51    3
    10    51    45    1
    11    42    45   ar
    12    42    40   ar
    13    35    34    1
    14    35    37    1
    15    43    40    1
    16    45    44   ar
    17    40    39   ar
    18    34    27    1
    19    44    46    1
    20    44    41   ar
    21    39    48    1
    22    39    41   ar
    23    41    28    1
    24    27    28   ar
    25    27    26   ar
    26    28    29   ar
    27    26    30    1
    28    26    25   ar
    29    30    33    1
    30    30    31    1
    31    29    25   ar
    32    20    19    1
    33    25    18    1
    34    19    18   ar
    35    19    15   ar
    36    18    17   ar
    37     7     3    1
    38    15     5    1
    39    15    16   ar
    40     5     4   ar
    41     5     6   ar
    42    11     4    1
    43    11    14    1
    44    11    12    1
    45     4     3   ar
    46     6     1   ar
    47     2     3   ar
    48     2     1   ar
    49     2     8    1
    50     1    10    1
    51    10     9    3
    52    17    16   ar
    53    17    24    1
    54    16    22    1
    55    24    23    3
    56    22    21    3
