@<TRIPOS>MOLECULE
mol_data/noopt/geoms/mol2/6di4ha(180)4hf(60)4fa(280).out
 51 54 0 0 0
SMALL
GASTEIGER

@<TRIPOS>ATOM
      1 C          -4.5775   -2.0270    0.0001 C.ar    1  LIG1        0.1407
      2 C          -3.1706   -2.0270    0.0001 C.ar    1  LIG1       -0.0255
      3 C          -2.5039   -0.8004    0.0001 C.ar    1  LIG1       -0.0541
      4 C          -3.2580    0.3743   -0.0001 C.ar    1  LIG1       -0.0243
      5 C          -4.6612    0.2715   -0.0003 C.ar    1  LIG1        0.0771
      6 N          -5.3207   -0.9034   -0.0001 N.ar    1  LIG1       -0.2360
      7 H          -1.4054   -0.7607   -0.0009 H       1  LIG1        0.0622
      8 H          -2.5135   -3.1487    0.0004 H       1  LIG1        0.0646
      9 N          -5.8301   -4.1286    0.0003 N.1     1  LIG1       -0.1893
     10 C          -5.2431   -3.1437    0.0002 C.1     1  LIG1        0.1191
     11 C          -2.6845    1.5413   -0.0003 C.3     1  LIG1       -0.0377
     12 H          -3.3112    2.2468    0.5041 H       1  LIG1        0.0278
     13 H          -2.5273    1.8613   -1.0092 H       1  LIG1        0.0278
     14 H          -1.7430    1.4761    0.5040 H       1  LIG1        0.0278
     15 C          -6.8108    1.2113   -0.0012 C.ar    1  LIG1        0.0344
     16 C          -7.5737    2.3950   -0.0028 C.ar    1  LIG1       -0.0326
     17 C          -5.4065    1.3366   -0.0004 C.ar    1  LIG1        0.0213
     18 C          -6.9673    3.6492   -0.0030 C.ar    1  LIG1       -0.0142
     19 H          -8.6589    2.3212   -0.0037 H       1  LIG1        0.0642
     20 C          -4.8006    2.5884   -0.0006 C.ar    1  LIG1       -0.0502
     21 C          -5.5757    3.7527   -0.0018 C.ar    1  LIG1       -0.0532
     22 H          -3.7158    2.6587   -0.0001 H       1  LIG1        0.0625
     23 N          -7.4337    0.0702   -0.0008 N.pl3   1  LIG1       -0.3574
     24 H          -8.3101    0.1687   -0.4721 H       1  LIG1        0.1423
     25 H          -6.8768   -0.6137   -0.4722 H       1  LIG1        0.1423
     26 H          -5.0038    4.9202   -0.0021 H       1  LIG1        0.0624
     27 C          -7.5963    5.6470    1.0538 C.ar    1  LIG1        0.0332
     28 C          -8.4151    6.7919    1.0066 C.ar    1  LIG1       -0.0291
     29 C          -7.7022    4.7214   -0.0044 C.ar    1  LIG1        0.0063
     30 C          -9.3004    7.0080   -0.0470 C.ar    1  LIG1        0.0288
     31 H          -8.3495    7.5188    1.8131 H       1  LIG1        0.0643
     32 C          -8.5859    4.9367   -1.0565 C.ar    1  LIG1       -0.0101
     33 C          -9.3906    6.0804   -1.0856 C.ar    1  LIG1        0.1253
     34 H          -8.6492    4.2081   -1.8608 H       1  LIG1        0.0661
     35 N          -6.7897    5.5007    2.0628 N.pl3   1  LIG1       -0.3575
     36 H          -6.3687    4.5944    2.0242 H       1  LIG1        0.1423
     37 H          -6.0771    6.2011    2.0242 H       1  LIG1        0.1423
     38 O         -10.2150    6.2762   -2.0716 O.3     1  LIG1       -0.5061
     39 H         -10.6273    5.4440   -2.3146 H       1  LIG1        0.2922
     40 C         -10.2607    8.7656   -1.2686 C.ar    1  LIG1        0.1246
     41 C         -11.0696    9.9178   -1.2282 C.ar    1  LIG1       -0.0196
     42 C         -10.0414    8.0760   -0.0586 C.ar    1  LIG1        0.0271
     43 C         -11.6366   10.3649   -0.0369 C.ar    1  LIG1       -0.0583
     44 H         -11.2515   10.4651   -2.1504 H       1  LIG1        0.0654
     45 C         -10.6073    8.5219    1.1309 C.ar    1  LIG1       -0.0504
     46 C         -11.4083    9.6684    1.1505 C.ar    1  LIG1       -0.0610
     47 H         -10.4233    7.9728    2.0508 H       1  LIG1        0.0625
     48 H         -12.3785   11.4325   -0.0360 H       1  LIG1        0.0619
     49 O          -9.7595    8.3975   -2.4103 O.3     1  LIG1       -0.5062
     50 H          -9.1003    9.0362   -2.6917 H       1  LIG1        0.2922
     51 H         -11.9345   10.0807    2.2655 H       1  LIG1        0.0618
@<TRIPOS>BOND
     1    50    49    1
     2    49    40    1
     3    39    38    1
     4    44    41    1
     5    38    33    1
     6    34    32    1
     7    40    41   ar
     8    40    42   ar
     9    41    43   ar
    10    33    32   ar
    11    33    30   ar
    12    32    29   ar
    13    13    11    1
    14    25    23    1
    15    24    23    1
    16    42    30    1
    17    42    45   ar
    18    30    28   ar
    19    43    48    1
    20    43    46   ar
    21    29    18    1
    22    29    27   ar
    23    19    16    1
    24    18    16   ar
    25    18    21   ar
    26    16    15   ar
    27    26    21    1
    28    21    20   ar
    29    15    23    1
    30    15    17   ar
    31     7     3    1
    32    20    17   ar
    33    20    22    1
    34    17     5    1
    35    11     4    1
    36    11    14    1
    37    11    12    1
    38     5     6   ar
    39     5     4   ar
    40     6     1   ar
    41     4     3   ar
    42     1     2   ar
    43     1    10    1
    44     3     2   ar
    45     2     8    1
    46    10     9    3
    47    28    27   ar
    48    28    31    1
    49    27    35    1
    50    45    46   ar
    51    45    47    1
    52    46    51    1
    53    37    35    1
    54    36    35    1
