@<TRIPOS>MOLECULE
mol_data/noopt/geoms/mol2/6di6hi6dl-6hd.out
 55 58 0 0 0
SMALL
GASTEIGER

@<TRIPOS>ATOM
      1 C          -4.5775   -2.0270    0.0001 C.ar    1  LIG1        0.1407
      2 C          -3.1706   -2.0270    0.0001 C.ar    1  LIG1       -0.0255
      3 C          -2.5039   -0.8004    0.0001 C.ar    1  LIG1       -0.0541
      4 C          -3.2580    0.3743   -0.0001 C.ar    1  LIG1       -0.0243
      5 C          -4.6612    0.2715   -0.0003 C.ar    1  LIG1        0.0786
      6 N          -5.3207   -0.9034   -0.0001 N.ar    1  LIG1       -0.2360
      7 H          -1.4054   -0.7607   -0.0009 H       1  LIG1        0.0622
      8 H          -2.5135   -3.1487    0.0004 H       1  LIG1        0.0646
      9 N          -5.8301   -4.1286    0.0003 N.1     1  LIG1       -0.1893
     10 C          -5.2431   -3.1437    0.0002 C.1     1  LIG1        0.1191
     11 C          -2.6845    1.5413   -0.0003 C.3     1  LIG1       -0.0377
     12 H          -3.3112    2.2468    0.5041 H       1  LIG1        0.0278
     13 H          -2.5273    1.8613   -1.0092 H       1  LIG1        0.0278
     14 H          -1.7430    1.4761    0.5040 H       1  LIG1        0.0278
     15 C          -6.8088    1.2233   -0.0003 C.ar    1  LIG1        0.1261
     16 C          -5.4065    1.3366   -0.0004 C.ar    1  LIG1        0.0404
     17 C          -4.8408    2.6129   -0.0003 C.ar    1  LIG1       -0.0443
     18 C          -5.6871    3.7231   -0.0003 C.ar    1  LIG1       -0.0236
     19 C          -7.0774    3.5076   -0.0004 C.ar    1  LIG1        0.0788
     20 N          -7.6401    2.2834   -0.0003 N.ar    1  LIG1       -0.2314
     21 H          -3.7491    2.7410   -0.0014 H       1  LIG1        0.0628
     22 N          -7.3823    0.0566   -0.0003 N.pl3   1  LIG1       -0.3426
     23 H          -8.2621    0.1177   -0.4717 H       1  LIG1        0.1437
     24 H          -6.7967   -0.6027   -0.4717 H       1  LIG1        0.1437
     25 C          -5.2094    4.9325   -0.0004 C.3     1  LIG1       -0.0377
     26 H          -5.8909    5.5852    0.5040 H       1  LIG1        0.0278
     27 H          -5.0784    5.2642   -1.0092 H       1  LIG1        0.0278
     28 H          -4.2658    4.9433    0.5040 H       1  LIG1        0.0278
     29 C          -9.2946    4.2834   -0.0212 C.ar    1  LIG1        0.1501
     30 C          -7.9061    4.5092   -0.0003 C.ar    1  LIG1        0.0400
     31 C          -7.4452    5.8268    0.0208 C.ar    1  LIG1       -0.0059
     32 C          -8.3781    6.8652    0.0200 C.ar    1  LIG1        0.1468
     33 C          -9.7464    6.5385   -0.0020 C.ar    1  LIG1        0.1173
     34 N         -10.2086    5.2731   -0.0223 N.ar    1  LIG1       -0.2319
     35 H          -6.3674    6.0423    0.0365 H       1  LIG1        0.0662
     36 N         -10.1933    2.0082   -0.0588 N.1     1  LIG1       -0.1893
     37 C          -9.7721    3.0745   -0.0412 C.1     1  LIG1        0.1198
     38 O          -7.9996    8.1088    0.0389 O.3     1  LIG1       -0.4929
     39 C          -6.5711    8.1728    0.0458 C.3     1  LIG1        0.0789
     40 H          -6.2600    9.1965    0.0612 H       1  LIG1        0.0660
     41 H          -6.1958    7.6729    0.9143 H       1  LIG1        0.0660
     42 H          -6.1884    7.6970   -0.8328 H       1  LIG1        0.0660
     43 C         -12.0191    7.1332   -0.0042 C.ar    1  LIG1        0.1256
     44 C         -10.6531    7.4702   -0.0035 C.ar    1  LIG1        0.0447
     45 C         -10.2997    8.8208   -0.0042 C.ar    1  LIG1       -0.0303
     46 C         -11.3132    9.7806   -0.0057 C.ar    1  LIG1        0.0706
     47 C         -12.6509    9.3447   -0.0065 C.ar    1  LIG1        0.0471
     48 N         -13.0098    8.0460   -0.0057 N.ar    1  LIG1       -0.2388
     49 H          -9.2427    9.1225   -0.0047 H       1  LIG1        0.0638
     50 H         -13.6297   10.2002   -0.0078 H       1  LIG1        0.0843
     51 N         -12.3978    5.8895   -0.0035 N.pl3   1  LIG1       -0.3426
     52 H         -13.2760    5.8083   -0.4747 H       1  LIG1        0.1437
     53 H         -11.7139    5.3326   -0.4748 H       1  LIG1        0.1437
     54 N         -10.7915   12.1709   -0.0074 N.1     1  LIG1       -0.1908
     55 C         -11.0360   11.0507   -0.0066 C.1     1  LIG1        0.1007
@<TRIPOS>BOND
     1    27    25    1
     2    13    11    1
     3    42    39    1
     4    53    51    1
     5    52    51    1
     6    24    22    1
     7    23    22    1
     8    36    37    3
     9    37    29    1
    10    34    29   ar
    11    34    33   ar
    12    29    30   ar
    13    50    47    1
    14    54    55    3
    15    55    46    1
    16    47    46   ar
    17    47    48   ar
    18    46    45   ar
    19    48    43   ar
    20    49    45    1
    21    45    44   ar
    22    43    44   ar
    23    43    51    1
    24    44    33    1
    25    33    32   ar
    26    21    17    1
    27     7     3    1
    28    16     5    1
    29    16    15   ar
    30    16    17   ar
    31    19    20   ar
    32    19    30    1
    33    19    18   ar
    34    25    18    1
    35    25    28    1
    36    25    26    1
    37    11     4    1
    38    11    14    1
    39    11    12    1
    40     5     6   ar
    41     5     4   ar
    42    15    22    1
    43    15    20   ar
    44    17    18   ar
    45    30    31   ar
    46     6     1   ar
    47     4     3   ar
    48     1     2   ar
    49     1    10    1
    50     3     2   ar
    51     2     8    1
    52    10     9    3
    53    32    31   ar
    54    32    38    1
    55    31    35    1
    56    38    39    1
    57    39    40    1
    58    39    41    1
