@<TRIPOS>MOLECULE
mol_data/noopt/geoms/mol2/6di6di-4di6di.out
 55 58 0 0 0
SMALL
GASTEIGER

@<TRIPOS>ATOM
      1 C          -4.5775   -2.0270    0.0001 C.ar    1  LIG1        0.1407
      2 C          -3.1706   -2.0270    0.0001 C.ar    1  LIG1       -0.0255
      3 C          -2.5039   -0.8004    0.0001 C.ar    1  LIG1       -0.0538
      4 C          -3.2580    0.3743   -0.0001 C.ar    1  LIG1       -0.0209
      5 C          -4.6612    0.2715   -0.0003 C.ar    1  LIG1        0.0777
      6 N          -5.3207   -0.9034   -0.0001 N.ar    1  LIG1       -0.2360
      7 H          -1.4054   -0.7607   -0.0009 H       1  LIG1        0.0622
      8 H          -2.5135   -3.1487    0.0004 H       1  LIG1        0.0646
      9 N          -5.8301   -4.1286    0.0003 N.1     1  LIG1       -0.1893
     10 C          -5.2431   -3.1437    0.0002 C.1     1  LIG1        0.1191
     11 C          -2.6845    1.5413   -0.0003 C.3     1  LIG1       -0.0216
     12 H          -3.3112    2.2468    0.5041 H       1  LIG1        0.0870
     13 H          -2.5273    1.8613   -1.0092 H       1  LIG1        0.0317
     14 H          -1.7430    1.4761    0.5040 H       1  LIG1        0.0317
     15 C          -4.8196    2.6153   -0.0003 C.ar    1  LIG1        0.0935
     16 C          -5.4065    1.3366   -0.0004 C.ar    1  LIG1        0.0279
     17 C          -6.7994    1.2424   -0.0003 C.ar    1  LIG1       -0.0455
     18 C          -7.5524    2.4178   -0.0003 C.ar    1  LIG1       -0.0238
     19 C          -6.8736    3.6502   -0.0004 C.ar    1  LIG1        0.0759
     20 N          -5.5307    3.7594   -0.0003 N.ar    1  LIG1       -0.2447
     21 H          -7.2937    0.2606   -0.0014 H       1  LIG1        0.0628
     22 N          -2.3870    2.8770   -0.0002 N.2     1  LIG1       -0.1555
     23 C          -3.5271    2.7543   -0.0003 C.2     1  LIG1        0.0759
     24 C          -8.8523    2.3834   -0.0004 C.3     1  LIG1       -0.0377
     25 H          -9.1858    1.5006    0.5040 H       1  LIG1        0.0278
     26 H          -9.2088    2.3739   -1.0093 H       1  LIG1        0.0278
     27 H          -9.2320    3.2473    0.5039 H       1  LIG1        0.0278
     28 C          -6.8310    5.9958    0.0005 C.ar    1  LIG1        0.0615
     29 C          -7.5886    7.1830    0.0022 C.ar    1  LIG1       -0.0357
     30 C          -7.5307    4.7718   -0.0003 C.ar    1  LIG1        0.0183
     31 C          -8.9814    7.1551    0.0023 C.ar    1  LIG1       -0.0114
     32 H          -7.0688    8.1385    0.0030 H       1  LIG1        0.0637
     33 C          -8.9211    4.7434   -0.0001 C.ar    1  LIG1       -0.0476
     34 C          -9.6560    5.9336    0.0011 C.ar    1  LIG1       -0.0386
     35 H          -9.4376    3.7869   -0.0006 H       1  LIG1        0.0627
     36 N          -4.3903    6.1653   -0.0002 N.1     1  LIG1       -0.1908
     37 C          -5.5341    6.0859    0.0002 C.1     1  LIG1        0.0998
     38 C         -10.9559    5.9008    0.0014 C.3     1  LIG1       -0.0231
     39 H         -11.2903    5.0184    0.5060 H       1  LIG1        0.0316
     40 H         -11.3127    5.8917   -1.0073 H       1  LIG1        0.0316
     41 H         -11.3343    6.7652    0.5059 H       1  LIG1        0.0870
     42 C         -11.0562    8.2567    0.0047 C.ar    1  LIG1        0.0913
     43 C          -9.6493    8.2703    0.0037 C.ar    1  LIG1        0.0096
     44 C          -8.9946    9.5034    0.0047 C.ar    1  LIG1       -0.0476
     45 C          -9.7600   10.6707    0.0063 C.ar    1  LIG1       -0.0317
     46 C         -11.1621   10.5543    0.0069 C.ar    1  LIG1        0.0312
     47 N         -11.8102    9.3730    0.0062 N.ar    1  LIG1       -0.2531
     48 H          -7.8965    9.5537    0.0030 H       1  LIG1        0.0627
     49 H         -11.9177   11.6121    0.0085 H       1  LIG1        0.0832
     50 N         -12.2884    6.1430    0.0033 N.2     1  LIG1       -0.1555
     51 C         -11.7109    7.1336    0.0040 C.2     1  LIG1        0.0758
     52 C          -9.1978   11.8432    0.0071 C.3     1  LIG1       -0.0383
     53 H          -9.8315   12.5423    0.5117 H       1  LIG1        0.0278
     54 H          -9.0434   12.1654   -1.0016 H       1  LIG1        0.0278
     55 H          -8.2559   11.7868    0.5116 H       1  LIG1        0.0278
@<TRIPOS>BOND
     1    26    24    1
     2    13    11    1
     3    40    38    1
     4    54    52    1
     5    21    17    1
     6     7     3    1
     7    35    33    1
     8    16    17   ar
     9    16     5    1
    10    16    15   ar
    11    24    18    1
    12    24    27    1
    13    24    25    1
    14    19    18   ar
    15    19    30    1
    16    19    20   ar
    17    17    18   ar
    18     5     6   ar
    19     5     4   ar
    20    11     4    1
    21    11    14    1
    22    30    33   ar
    23    30    28   ar
    24    15    20   ar
    25    15    23    1
    26    23    22    2
    27    23    12    1
    28    36    37    3
    29     6     1   ar
    30     4     3   ar
    31    33    34   ar
    32     1     2   ar
    33     1    10    1
    34     3     2   ar
    35     2     8    1
    36    37    28    1
    37    10     9    3
    38    28    29   ar
    39    34    38    1
    40    34    31   ar
    41    38    39    1
    42    29    31   ar
    43    29    32    1
    44    31    43    1
    45    48    44    1
    46    50    51    2
    47    43    42   ar
    48    43    44   ar
    49    51    42    1
    50    51    41    1
    51    42    47   ar
    52    44    45   ar
    53    47    46   ar
    54    45    46   ar
    55    45    52    1
    56    46    49    1
    57    52    55    1
    58    52    53    1
