@<TRIPOS>MOLECULE
mol_data/noopt/geoms/mol2/6di6di-6di-6di.out
 54 57 0 0 0
SMALL
GASTEIGER

@<TRIPOS>ATOM
      1 C          -4.5775   -2.0270    0.0001 C.ar    1  LIG1        0.1407
      2 C          -3.1706   -2.0270    0.0001 C.ar    1  LIG1       -0.0255
      3 C          -2.5039   -0.8004    0.0001 C.ar    1  LIG1       -0.0538
      4 C          -3.2580    0.3743   -0.0001 C.ar    1  LIG1       -0.0209
      5 C          -4.6612    0.2715   -0.0003 C.ar    1  LIG1        0.0777
      6 N          -5.3207   -0.9034   -0.0001 N.ar    1  LIG1       -0.2360
      7 H          -1.4054   -0.7607   -0.0009 H       1  LIG1        0.0622
      8 H          -2.5135   -3.1487    0.0004 H       1  LIG1        0.0646
      9 N          -5.8301   -4.1286    0.0003 N.1     1  LIG1       -0.1893
     10 C          -5.2431   -3.1437    0.0002 C.1     1  LIG1        0.1191
     11 C          -2.6845    1.5413   -0.0003 C.3     1  LIG1       -0.0216
     12 H          -3.3112    2.2468    0.5041 H       1  LIG1        0.0870
     13 H          -2.5273    1.8613   -1.0092 H       1  LIG1        0.0317
     14 H          -1.7430    1.4761    0.5040 H       1  LIG1        0.0317
     15 C          -4.8196    2.6153   -0.0003 C.ar    1  LIG1        0.0935
     16 C          -5.4065    1.3366   -0.0004 C.ar    1  LIG1        0.0279
     17 C          -6.7994    1.2424   -0.0003 C.ar    1  LIG1       -0.0455
     18 C          -7.5524    2.4178   -0.0003 C.ar    1  LIG1       -0.0237
     19 C          -6.8736    3.6502   -0.0004 C.ar    1  LIG1        0.0774
     20 N          -5.5307    3.7594   -0.0003 N.ar    1  LIG1       -0.2447
     21 H          -7.2937    0.2606   -0.0014 H       1  LIG1        0.0628
     22 N          -2.3870    2.8770   -0.0002 N.2     1  LIG1       -0.1555
     23 C          -3.5271    2.7543   -0.0003 C.2     1  LIG1        0.0759
     24 C          -8.8523    2.3834   -0.0004 C.3     1  LIG1       -0.0377
     25 H          -9.1858    1.5006    0.5040 H       1  LIG1        0.0278
     26 H          -9.2088    2.3739   -1.0093 H       1  LIG1        0.0278
     27 H          -9.2320    3.2473    0.5039 H       1  LIG1        0.0278
     28 C          -6.8427    5.9991   -0.0000 C.ar    1  LIG1        0.1499
     29 C          -7.5307    4.7719   -0.0003 C.ar    1  LIG1        0.0368
     30 C          -8.9267    4.7902   -0.0001 C.ar    1  LIG1       -0.0446
     31 C          -9.5826    6.0224    0.0002 C.ar    1  LIG1       -0.0203
     32 C          -8.8067    7.1961    0.0002 C.ar    1  LIG1        0.0777
     33 N          -7.4594    7.1968    0.0002 N.ar    1  LIG1       -0.2353
     34 H          -9.4985    3.8514   -0.0012 H       1  LIG1        0.0628
     35 N          -4.3970    6.0640   -0.0002 N.1     1  LIG1       -0.1893
     36 C          -5.5432    6.0336   -0.0001 C.1     1  LIG1        0.1198
     37 C         -10.8810    6.0928    0.0002 C.3     1  LIG1       -0.0216
     38 H         -11.2845    5.2397    0.5046 H       1  LIG1        0.0317
     39 H         -11.2372    6.1120   -1.0087 H       1  LIG1        0.0317
     40 H         -11.1898    6.9845    0.5045 H       1  LIG1        0.0870
     41 C         -10.7737    8.4804    0.0008 C.ar    1  LIG1        0.0928
     42 C          -9.3714    8.3671    0.0005 C.ar    1  LIG1        0.0278
     43 C          -8.6080    9.5360    0.0008 C.ar    1  LIG1       -0.0461
     44 C          -9.2650   10.7676    0.0012 C.ar    1  LIG1       -0.0317
     45 C         -10.6720   10.7782    0.0013 C.ar    1  LIG1        0.0312
     46 N         -11.4240    9.6602    0.0012 N.ar    1  LIG1       -0.2531
     47 H          -7.5099    9.4871   -0.0004 H       1  LIG1        0.0628
     48 H         -11.3291   11.8999    0.0018 H       1  LIG1        0.0832
     49 N         -12.1915    6.4865    0.0004 N.2     1  LIG1       -0.1555
     50 C         -11.5271    7.4210    0.0006 C.2     1  LIG1        0.0759
     51 C          -8.5994   11.8846    0.0014 C.3     1  LIG1       -0.0383
     52 H          -9.1673   12.6382    0.5058 H       1  LIG1        0.0278
     53 H          -8.4168   12.1911   -1.0074 H       1  LIG1        0.0278
     54 H          -7.6663   11.7437    0.5058 H       1  LIG1        0.0278
@<TRIPOS>BOND
     1    26    24    1
     2    13    11    1
     3    39    37    1
     4    53    51    1
     5    21    17    1
     6    34    30    1
     7     7     3    1
     8    47    43    1
     9    16    17   ar
    10    16     5    1
    11    16    15   ar
    12    24    18    1
    13    24    27    1
    14    24    25    1
    15    19    18   ar
    16    19    29    1
    17    19    20   ar
    18    17    18   ar
    19     5     6   ar
    20     5     4   ar
    21    11     4    1
    22    11    14    1
    23    29    30   ar
    24    29    28   ar
    25    15    20   ar
    26    15    23    1
    27    23    22    2
    28    23    12    1
    29    35    36    3
    30    36    28    1
    31     6     1   ar
    32     4     3   ar
    33    30    31   ar
    34    28    33   ar
    35     1     2   ar
    36     1    10    1
    37     2     3   ar
    38     2     8    1
    39    31    32   ar
    40    31    37    1
    41    32    33   ar
    42    32    42    1
    43    37    38    1
    44    10     9    3
    45    49    50    2
    46    42    41   ar
    47    42    43   ar
    48    50    41    1
    49    50    40    1
    50    41    46   ar
    51    43    44   ar
    52    46    45   ar
    53    44    45   ar
    54    44    51    1
    55    45    48    1
    56    51    54    1
    57    51    52    1
