@<TRIPOS>MOLECULE
mol_data/noopt/geoms/mol2/6di6la(270)6le(10)6hh(350).out
 56 59 0 0 0
SMALL
GASTEIGER

@<TRIPOS>ATOM
      1 C          -4.5775   -2.0270    0.0001 C.ar    1  LIG1        0.1407
      2 C          -3.1706   -2.0270    0.0001 C.ar    1  LIG1       -0.0255
      3 C          -2.5039   -0.8004    0.0001 C.ar    1  LIG1       -0.0541
      4 C          -3.2580    0.3743   -0.0001 C.ar    1  LIG1       -0.0242
      5 C          -4.6612    0.2715   -0.0003 C.ar    1  LIG1        0.0804
      6 N          -5.3207   -0.9034   -0.0001 N.ar    1  LIG1       -0.2359
      7 H          -1.4054   -0.7607   -0.0009 H       1  LIG1        0.0622
      8 H          -2.5135   -3.1487    0.0004 H       1  LIG1        0.0646
      9 N          -5.8301   -4.1286    0.0003 N.1     1  LIG1       -0.1893
     10 C          -5.2431   -3.1437    0.0002 C.1     1  LIG1        0.1191
     11 C          -2.6845    1.5413   -0.0003 C.3     1  LIG1       -0.0377
     12 H          -3.3112    2.2468    0.5041 H       1  LIG1        0.0278
     13 H          -2.5273    1.8613   -1.0092 H       1  LIG1        0.0278
     14 H          -1.7430    1.4761    0.5040 H       1  LIG1        0.0278
     15 C          -5.8141    1.9195    1.2135 C.ar    1  LIG1        0.2244
     16 C          -5.4065    1.3366   -0.0004 C.ar    1  LIG1        0.0622
     17 C          -5.8199    1.9277   -1.1957 C.ar    1  LIG1       -0.0454
     18 C          -6.6195    3.0705   -1.1389 C.ar    1  LIG1       -0.0347
     19 C          -6.9753    3.5790    0.1237 C.ar    1  LIG1        0.0800
     20 N          -6.5853    3.0217    1.2867 N.ar    1  LIG1       -0.2122
     21 H          -5.5221    1.5001   -2.1636 H       1  LIG1        0.0626
     22 O          -5.4547    1.4057    2.3523 O.3     1  LIG1       -0.4792
     23 C          -6.4272    0.4442    2.7704 C.3     1  LIG1        0.0804
     24 H          -6.1309    0.0215    3.7076 H       1  LIG1        0.0660
     25 H          -7.3779    0.9229    2.8797 H       1  LIG1        0.0660
     26 H          -6.5005   -0.3311    2.0367 H       1  LIG1        0.0660
     27 H          -7.0305    3.6578   -2.2235 H       1  LIG1        0.0639
     28 C          -9.1138    4.5502    0.0758 C.ar    1  LIG1        0.2245
     29 C          -7.7181    4.6408    0.2284 C.ar    1  LIG1        0.0631
     30 C          -7.1561    5.8910    0.4933 C.ar    1  LIG1       -0.0300
     31 C          -7.9994    6.9987    0.5958 C.ar    1  LIG1        0.0516
     32 C          -9.3830    6.8072    0.4273 C.ar    1  LIG1        0.0935
     33 N          -9.9421    5.6083    0.1715 N.ar    1  LIG1       -0.2110
     34 H          -6.0695    6.0010    0.6176 H       1  LIG1        0.0639
     35 O          -9.6836    3.4082   -0.1716 O.3     1  LIG1       -0.4792
     36 C         -11.0989    3.5908   -0.2625 C.3     1  LIG1        0.0804
     37 H         -11.5675    2.6507   -0.4664 H       1  LIG1        0.0660
     38 H         -11.4685    3.9802    0.6631 H       1  LIG1        0.0660
     39 H         -11.3199    4.2781   -1.0522 H       1  LIG1        0.0660
     40 C          -7.5251    8.1840    0.8410 C.1     1  LIG1       -0.0675
     41 C          -7.0869    9.2792    1.0675 C.1     1  LIG1       -0.1138
     42 H          -6.6965   10.2548    1.2694 H       1  LIG1        0.1232
     43 C         -11.5735    7.5831    0.7712 C.ar    1  LIG1        0.1255
     44 C         -10.2087    7.8076    0.5137 C.ar    1  LIG1        0.0429
     45 C          -9.7678    9.1227    0.3549 C.ar    1  LIG1       -0.0271
     46 C         -10.6964   10.1598    0.4575 C.ar    1  LIG1        0.0437
     47 C         -12.0404    9.8345    0.7172 C.ar    1  LIG1        0.0503
     48 N         -12.4830    8.5716    0.8734 N.ar    1  LIG1       -0.2382
     49 H          -8.7090    9.3371    0.1516 H       1  LIG1        0.0644
     50 H         -12.9421   10.7651    0.8216 H       1  LIG1        0.0849
     51 N         -12.0318    6.3765    0.9267 N.pl3   1  LIG1       -0.3426
     52 H         -12.9326    6.3043    0.4985 H       1  LIG1        0.1437
     53 H         -11.4060    5.7245    0.4984 H       1  LIG1        0.1437
     54 N         -10.3360   11.4010    0.3173 N.pl3   1  LIG1       -0.3568
     55 H          -9.4736   11.4427   -0.1873 H       1  LIG1        0.1424
     56 H         -11.0418   11.8981   -0.1873 H       1  LIG1        0.1424
@<TRIPOS>BOND
     1    27    18    1
     2    21    17    1
     3    17    18   ar
     4    17    16   ar
     5    18    19   ar
     6    39    36    1
     7    13    11    1
     8    37    36    1
     9    36    35    1
    10    36    38    1
    11    56    54    1
    12    55    54    1
    13    35    28    1
    14     7     3    1
    15    16     5    1
    16    16    15   ar
    17    11     4    1
    18    11    14    1
    19    11    12    1
    20     5     6   ar
    21     5     4   ar
    22     6     1   ar
    23     4     3   ar
    24     1     2   ar
    25     1    10    1
    26     2     3   ar
    27     2     8    1
    28    10     9    3
    29    28    33   ar
    30    28    29   ar
    31    19    29    1
    32    19    20   ar
    33    49    45    1
    34    33    32   ar
    35    29    30   ar
    36    54    46    1
    37    45    46   ar
    38    45    44   ar
    39    32    44    1
    40    32    31   ar
    41    46    47   ar
    42    30    31   ar
    43    30    34    1
    44    53    51    1
    45    52    51    1
    46    44    43   ar
    47    31    40    1
    48    47    50    1
    49    47    48   ar
    50    43    48   ar
    51    43    51    1
    52    40    41    3
    53    41    42    1
    54    15    20   ar
    55    15    22    1
    56    26    23    1
    57    22    23    1
    58    23    25    1
    59    23    24    1
