@<TRIPOS>MOLECULE
mol_data/noopt/geoms/mol2/6di6di-6di.out
 41 43 0 0 0
SMALL
GASTEIGER

@<TRIPOS>ATOM
      1 C          -4.5775   -2.0270    0.0001 C.ar    1  LIG1        0.1407
      2 C          -3.1706   -2.0270    0.0001 C.ar    1  LIG1       -0.0255
      3 C          -2.5039   -0.8004    0.0001 C.ar    1  LIG1       -0.0538
      4 C          -3.2580    0.3743   -0.0001 C.ar    1  LIG1       -0.0209
      5 C          -4.6612    0.2715   -0.0003 C.ar    1  LIG1        0.0777
      6 N          -5.3207   -0.9034   -0.0001 N.ar    1  LIG1       -0.2360
      7 H          -1.4054   -0.7607   -0.0009 H       1  LIG1        0.0622
      8 H          -2.5135   -3.1487    0.0004 H       1  LIG1        0.0646
      9 N          -5.8301   -4.1286    0.0003 N.1     1  LIG1       -0.1893
     10 C          -5.2431   -3.1437    0.0002 C.1     1  LIG1        0.1191
     11 C          -2.6845    1.5413   -0.0003 C.3     1  LIG1       -0.0216
     12 H          -3.3112    2.2468    0.5041 H       1  LIG1        0.0870
     13 H          -2.5273    1.8613   -1.0092 H       1  LIG1        0.0317
     14 H          -1.7430    1.4761    0.5040 H       1  LIG1        0.0317
     15 C          -4.8196    2.6153   -0.0003 C.ar    1  LIG1        0.0935
     16 C          -5.4065    1.3366   -0.0004 C.ar    1  LIG1        0.0279
     17 C          -6.7994    1.2424   -0.0003 C.ar    1  LIG1       -0.0452
     18 C          -7.5524    2.4178   -0.0003 C.ar    1  LIG1       -0.0204
     19 C          -6.8736    3.6502   -0.0004 C.ar    1  LIG1        0.0770
     20 N          -5.5307    3.7594   -0.0003 N.ar    1  LIG1       -0.2447
     21 H          -7.2937    0.2606   -0.0014 H       1  LIG1        0.0628
     22 N          -2.3870    2.8770   -0.0002 N.2     1  LIG1       -0.1555
     23 C          -3.5271    2.7543   -0.0003 C.2     1  LIG1        0.0759
     24 C          -8.8523    2.3834   -0.0004 C.3     1  LIG1       -0.0216
     25 H          -9.1858    1.5006    0.5040 H       1  LIG1        0.0317
     26 H          -9.2088    2.3739   -1.0093 H       1  LIG1        0.0317
     27 H          -9.2320    3.2473    0.5039 H       1  LIG1        0.0870
     28 C          -8.9376    4.7719   -0.0001 C.ar    1  LIG1        0.0928
     29 C          -7.5307    4.7719   -0.0003 C.ar    1  LIG1        0.0278
     30 C          -6.8640    5.9985   -0.0001 C.ar    1  LIG1       -0.0461
     31 C          -7.6181    7.1732    0.0002 C.ar    1  LIG1       -0.0317
     32 C          -9.0213    7.0704    0.0002 C.ar    1  LIG1        0.0312
     33 N          -9.6808    5.8955    0.0002 N.ar    1  LIG1       -0.2531
     34 H          -5.7655    6.0382   -0.0012 H       1  LIG1        0.0628
     35 H          -9.7666    8.1355    0.0005 H       1  LIG1        0.0832
     36 N         -10.1903    2.6703   -0.0002 N.2     1  LIG1       -0.1555
     37 C          -9.6032    3.6552   -0.0002 C.2     1  LIG1        0.0759
     38 C          -7.0446    8.3402    0.0002 C.3     1  LIG1       -0.0383
     39 H          -7.6713    9.0456    0.5046 H       1  LIG1        0.0278
     40 H          -6.8873    8.6603   -1.0086 H       1  LIG1        0.0278
     41 H          -6.1032    8.2749    0.5046 H       1  LIG1        0.0278
@<TRIPOS>BOND
     1    26    24    1
     2    13    11    1
     3    40    38    1
     4    21    17    1
     5    34    30    1
     6     7     3    1
     7    16    17   ar
     8    16     5    1
     9    16    15   ar
    10    24    18    1
    11    24    25    1
    12    19    18   ar
    13    19    29    1
    14    19    20   ar
    15    17    18   ar
    16     5     6   ar
    17     5     4   ar
    18    11     4    1
    19    11    14    1
    20    29    28   ar
    21    29    30   ar
    22    15    20   ar
    23    15    23    1
    24    23    22    2
    25    23    12    1
    26    36    37    2
    27    37    28    1
    28    37    27    1
    29     6     1   ar
    30     4     3   ar
    31    28    33   ar
    32    30    31   ar
    33     1     2   ar
    34     1    10    1
    35     3     2   ar
    36     2     8    1
    37    33    32   ar
    38    32    31   ar
    39    32    35    1
    40    31    38    1
    41    38    41    1
    42    38    39    1
    43    10     9    3
