@<TRIPOS>MOLECULE
mol_data/noopt/geoms/mol2/6di6di-.out
 28 29 0 0 0
SMALL
GASTEIGER

@<TRIPOS>ATOM
      1 C          -4.5775   -2.0270    0.0001 C.ar    1  LIG1        0.1407
      2 C          -3.1706   -2.0270    0.0001 C.ar    1  LIG1       -0.0255
      3 C          -2.5039   -0.8004    0.0001 C.ar    1  LIG1       -0.0538
      4 C          -3.2580    0.3743   -0.0001 C.ar    1  LIG1       -0.0209
      5 C          -4.6612    0.2715   -0.0003 C.ar    1  LIG1        0.0777
      6 N          -5.3207   -0.9034   -0.0001 N.ar    1  LIG1       -0.2360
      7 H          -1.4054   -0.7607   -0.0009 H       1  LIG1        0.0622
      8 H          -2.5135   -3.1487    0.0004 H       1  LIG1        0.0646
      9 N          -5.8301   -4.1286    0.0003 N.1     1  LIG1       -0.1893
     10 C          -5.2431   -3.1437    0.0002 C.1     1  LIG1        0.1191
     11 C          -2.6845    1.5413   -0.0003 C.3     1  LIG1       -0.0216
     12 H          -3.3112    2.2468    0.5041 H       1  LIG1        0.0870
     13 H          -2.5273    1.8613   -1.0092 H       1  LIG1        0.0317
     14 H          -1.7430    1.4761    0.5040 H       1  LIG1        0.0317
     15 C          -4.8196    2.6153   -0.0003 C.ar    1  LIG1        0.0928
     16 C          -5.4065    1.3366   -0.0004 C.ar    1  LIG1        0.0278
     17 C          -6.7994    1.2424   -0.0003 C.ar    1  LIG1       -0.0461
     18 C          -7.5524    2.4178   -0.0003 C.ar    1  LIG1       -0.0317
     19 C          -6.8736    3.6502   -0.0004 C.ar    1  LIG1        0.0312
     20 N          -5.5307    3.7594   -0.0003 N.ar    1  LIG1       -0.2531
     21 H          -7.2937    0.2606   -0.0014 H       1  LIG1        0.0628
     22 H          -7.5307    4.7719   -0.0003 H       1  LIG1        0.0832
     23 N          -2.3870    2.8770   -0.0002 N.2     1  LIG1       -0.1555
     24 C          -3.5271    2.7543   -0.0003 C.2     1  LIG1        0.0759
     25 C          -8.8523    2.3834   -0.0004 C.3     1  LIG1       -0.0383
     26 H          -9.1858    1.5006    0.5040 H       1  LIG1        0.0278
     27 H          -9.2088    2.3739   -1.0093 H       1  LIG1        0.0278
     28 H          -9.2320    3.2473    0.5039 H       1  LIG1        0.0278
@<TRIPOS>BOND
     1    27    25    1
     2    13    11    1
     3    21    17    1
     4     7     3    1
     5    16    17   ar
     6    16     5    1
     7    16    15   ar
     8    25    18    1
     9    25    28    1
    10    25    26    1
    11    19    18   ar
    12    19    22    1
    13    19    20   ar
    14    17    18   ar
    15     5     6   ar
    16     5     4   ar
    17    11     4    1
    18    11    14    1
    19    15    20   ar
    20    15    24    1
    21    24    23    2
    22    24    12    1
    23     6     1   ar
    24     4     3   ar
    25     1     2   ar
    26     1    10    1
    27     3     2   ar
    28     2     8    1
    29    10     9    3
