@<TRIPOS>MOLECULE
mol_data/noopt/geoms/mol2/6dl12ae13ea-6hh-.out
 48 51 0 0 0
SMALL
GASTEIGER

@<TRIPOS>ATOM
      1 C          -4.5775   -2.0270    0.0001 C.ar    1  LIG1        0.1411
      2 C          -3.1706   -2.0270    0.0001 C.ar    1  LIG1       -0.0223
      3 C          -2.5039   -0.8004    0.0001 C.ar    1  LIG1       -0.0150
      4 C          -3.2580    0.3743   -0.0001 C.ar    1  LIG1        0.1491
      5 C          -4.6612    0.2715   -0.0003 C.ar    1  LIG1        0.1489
      6 N          -5.3207   -0.9034   -0.0001 N.ar    1  LIG1       -0.2296
      7 H          -1.4054   -0.7607   -0.0009 H       1  LIG1        0.0656
      8 H          -2.5135   -3.1487    0.0004 H       1  LIG1        0.0647
      9 N          -5.8301   -4.1286    0.0003 N.1     1  LIG1       -0.1893
     10 C          -5.2431   -3.1437    0.0002 C.1     1  LIG1        0.1191
     11 O          -2.6846    1.5410   -0.0003 O.3     1  LIG1       -0.4929
     12 C          -1.2643    1.3748   -0.0004 C.3     1  LIG1        0.0789
     13 H          -0.7927    2.3353   -0.0008 H       1  LIG1        0.0660
     14 H          -0.9685    0.8326    0.8734 H       1  LIG1        0.0660
     15 H          -0.9687    0.8321   -0.8739 H       1  LIG1        0.0660
     16 C          -5.4065    1.3366   -0.0004 C.ar    1  LIG1        0.1587
     17 C          -5.1776    2.6970   -0.0005 C.ar    1  LIG1        0.0019
     18 C          -6.4770    3.3362   -0.0006 C.ar    1  LIG1        0.0725
     19 C          -7.4141    2.3236   -0.0007 C.ar    1  LIG1        0.1683
     20 O          -6.7786    1.0814   -0.0006 O.2     1  LIG1       -0.4504
     21 H          -4.0318    3.3111   -0.0004 H       1  LIG1        0.0668
     22 C          -6.6905    4.6186   -0.0007 C.1     1  LIG1       -0.0658
     23 C          -6.8877    5.8035   -0.0007 C.1     1  LIG1       -0.1138
     24 H          -7.0635    6.8590   -0.0008 H       1  LIG1        0.1232
     25 C          -8.7127    2.2633   -0.0007 C.ar    1  LIG1        0.0993
     26 C          -9.6417    3.2558   -0.0011 C.ar    1  LIG1        0.0536
     27 C         -10.9317    2.6341    0.0002 C.ar    1  LIG1       -0.0202
     28 C         -10.7343    1.2890   -0.0005 C.ar    1  LIG1        0.0515
     29 N          -9.3772    1.0577   -0.0006 N.ar    1  LIG1       -0.3507
     30 H          -8.9457    0.1622   -0.0011 H       1  LIG1        0.1660
     31 C          -9.3997    4.5330   -0.0010 C.1     1  LIG1       -0.0674
     32 C          -9.1760    5.7132   -0.0009 C.1     1  LIG1       -0.1138
     33 H          -8.9768    6.7645   -0.0008 H       1  LIG1        0.1232
     34 H         -12.0815    3.2405    0.0012 H       1  LIG1        0.0651
     35 C         -11.1455   -1.0237   -0.0207 C.ar    1  LIG1        0.1254
     36 C         -11.5905    0.3108    0.0000 C.ar    1  LIG1        0.0396
     37 C         -12.9649    0.5551    0.0213 C.ar    1  LIG1       -0.0272
     38 C         -13.8406   -0.5319    0.0210 C.ar    1  LIG1        0.0437
     39 C         -13.2993   -1.8304   -0.0008 C.ar    1  LIG1        0.0503
     40 N         -11.9763   -2.0842   -0.0214 N.ar    1  LIG1       -0.2382
     41 H         -13.3500    1.5845    0.0369 H       1  LIG1        0.0644
     42 H         -14.0739   -2.8744   -0.0020 H       1  LIG1        0.0849
     43 N          -9.8757   -1.3017   -0.0409 N.pl3   1  LIG1       -0.3426
     44 H          -9.7319   -2.1690   -0.5174 H       1  LIG1        0.1437
     45 H          -9.3827   -0.5739   -0.5174 H       1  LIG1        0.1437
     46 N         -15.1287   -0.3572    0.0401 N.pl3   1  LIG1       -0.3568
     47 H         -15.3561    0.4976   -0.4263 H       1  LIG1        0.1424
     48 H         -15.5756   -1.1205   -0.4263 H       1  LIG1        0.1424
@<TRIPOS>BOND
     1    15    12    1
     2    45    43    1
     3    44    43    1
     4    48    46    1
     5    47    46    1
     6    43    35    1
     7    40    35   ar
     8    40    39   ar
     9    35    36   ar
    10    42    39    1
    11    26    31    1
    12    26    25   ar
    13    26    27   ar
    14    30    29    1
    15    31    32    3
    16    32    33    1
    17     7     3    1
    18    39    38   ar
    19    24    23    1
    20    13    12    1
    21    23    22    3
    22    25    19    1
    23    25    29   ar
    24    22    18    1
    25    19    20   ar
    26    19    18   ar
    27    20    16   ar
    28    18    17   ar
    29    29    28   ar
    30    28    36    1
    31    28    27   ar
    32    17    16   ar
    33    17    21    1
    34    12    11    1
    35    12    14    1
    36    16     5    1
    37    11     4    1
    38     5     6   ar
    39     5     4   ar
    40     6     1   ar
    41     4     3   ar
    42    36    37   ar
    43     1     2   ar
    44     1    10    1
    45     3     2   ar
    46     2     8    1
    47    27    34    1
    48    10     9    3
    49    38    37   ar
    50    38    46    1
    51    37    41    1
