@<TRIPOS>MOLECULE
mol_data/noopt/geoms/mol2/6dl13ad(60)12hi(100)12eh(330).out
 48 51 0 0 0
SMALL
GASTEIGER

@<TRIPOS>ATOM
      1 C          -4.5775   -2.0270    0.0001 C.ar    1  LIG1        0.1410
      2 C          -3.1706   -2.0270    0.0001 C.ar    1  LIG1       -0.0223
      3 C          -2.5039   -0.8004    0.0001 C.ar    1  LIG1       -0.0151
      4 C          -3.2580    0.3743   -0.0001 C.ar    1  LIG1        0.1475
      5 C          -4.6612    0.2715   -0.0003 C.ar    1  LIG1        0.1300
      6 N          -5.3207   -0.9034   -0.0001 N.ar    1  LIG1       -0.2312
      7 H          -1.4054   -0.7607   -0.0009 H       1  LIG1        0.0656
      8 H          -2.5135   -3.1487    0.0004 H       1  LIG1        0.0647
      9 N          -5.8301   -4.1286    0.0003 N.1     1  LIG1       -0.1893
     10 C          -5.2431   -3.1437    0.0002 C.1     1  LIG1        0.1191
     11 O          -2.6846    1.5410   -0.0003 O.3     1  LIG1       -0.4929
     12 C          -1.2643    1.3748   -0.0004 C.3     1  LIG1        0.0789
     13 H          -0.7927    2.3353   -0.0008 H       1  LIG1        0.0660
     14 H          -0.9685    0.8326    0.8734 H       1  LIG1        0.0660
     15 H          -0.9687    0.8321   -0.8739 H       1  LIG1        0.0660
     16 C          -5.4065    1.3366   -0.0004 C.ar    1  LIG1        0.0704
     17 C          -5.4614    2.3748    0.8755 C.ar    1  LIG1       -0.0167
     18 C          -6.4620    3.2825    0.4008 C.ar    1  LIG1        0.0807
     19 C          -6.9735    2.7600   -0.7453 C.ar    1  LIG1        0.1020
     20 N          -6.3304    1.5685   -0.9943 N.ar    1  LIG1       -0.3494
     21 H          -6.5050    0.9708   -1.7691 H       1  LIG1        0.1661
     22 H          -4.7380    2.5137    1.9467 H       1  LIG1        0.0652
     23 N          -7.1322    5.3874    1.4524 N.1     1  LIG1       -0.1908
     24 C          -6.8181    4.4009    0.9595 C.1     1  LIG1        0.1014
     25 C          -7.8985    3.2118   -1.5391 C.ar    1  LIG1        0.1739
     26 C          -9.2024    3.6363   -1.3884 C.ar    1  LIG1        0.0761
     27 C          -9.6692    4.0176   -2.7051 C.ar    1  LIG1        0.0198
     28 C          -8.6191    3.8009   -3.5733 C.ar    1  LIG1        0.1766
     29 O          -7.5160    3.3042   -2.8781 O.2     1  LIG1       -0.4480
     30 N          -9.8991    3.6930   -0.2924 N.pl3   1  LIG1       -0.3548
     31 H         -10.4077    4.5536   -0.2648 H       1  LIG1        0.1424
     32 H         -10.5402    2.9260   -0.2648 H       1  LIG1        0.1424
     33 C         -10.8541    4.4733   -2.9865 C.3     1  LIG1       -0.0342
     34 H         -11.5946    3.8221   -2.5712 H       1  LIG1        0.0279
     35 H         -10.9754    4.5199   -4.0486 H       1  LIG1        0.0279
     36 H         -10.9673    5.4529   -2.5712 H       1  LIG1        0.0279
     37 C          -8.4277    3.9486   -4.8507 C.ar    1  LIG1        0.1871
     38 C          -8.0949    3.1149   -5.8981 C.ar    1  LIG1        0.0940
     39 C          -8.0438    3.9414   -7.0860 C.ar    1  LIG1        0.0792
     40 C          -8.3491    5.2259   -6.6855 C.ar    1  LIG1        0.1145
     41 O          -8.5898    5.2559   -5.3115 O.2     1  LIG1       -0.4567
     42 H          -8.4603    6.3786   -7.2763 H       1  LIG1        0.1049
     43 C          -7.8665    1.8358   -5.8553 C.1     1  LIG1       -0.0639
     44 C          -7.6554    0.6540   -5.8158 C.1     1  LIG1       -0.1137
     45 H          -7.4675   -0.3988   -5.7806 H       1  LIG1        0.1232
     46 N          -7.7622    3.5271   -8.2857 N.pl3   1  LIG1       -0.3546
     47 H          -8.6098    3.3216   -8.7749 H       1  LIG1        0.1424
     48 H          -7.2594    4.2397   -8.7749 H       1  LIG1        0.1424
@<TRIPOS>BOND
     1    48    46    1
     2    47    46    1
     3    46    39    1
     4    42    40    1
     5    39    40   ar
     6    39    38   ar
     7    40    41   ar
     8    38    43    1
     9    38    37   ar
    10    43    44    3
    11    44    45    1
    12    41    37   ar
    13    37    28    1
    14    35    33    1
    15    28    29   ar
    16    28    27   ar
    17    33    27    1
    18    33    36    1
    19    33    34    1
    20    29    25   ar
    21    27    26   ar
    22    21    20    1
    23    25    26   ar
    24    25    19    1
    25    26    30    1
    26    20    19   ar
    27    20    16   ar
    28    15    12    1
    29    19    18   ar
    30    30    31    1
    31    30    32    1
    32     7     3    1
    33    13    12    1
    34    12    11    1
    35    12    14    1
    36    16     5    1
    37    16    17   ar
    38     5     6   ar
    39     5     4   ar
    40    11     4    1
    41     6     1   ar
    42     4     3   ar
    43     3     2   ar
    44     2     1   ar
    45     2     8    1
    46     1    10    1
    47    10     9    3
    48    18    17   ar
    49    18    24    1
    50    17    22    1
    51    24    23    3
