@<TRIPOS>MOLECULE
mol_data/noopt/geoms/mol2/6dl13hf(10)13li(230)4eh(240).out
 56 58 0 0 0
SMALL
GASTEIGER

@<TRIPOS>ATOM
      1 C          -4.5775   -2.0270    0.0001 C.ar    1  LIG1        0.1410
      2 C          -3.1706   -2.0270    0.0001 C.ar    1  LIG1       -0.0221
      3 C          -2.5039   -0.8004    0.0001 C.ar    1  LIG1       -0.0100
      4 C          -3.2580    0.3743   -0.0001 C.ar    1  LIG1        0.2063
      5 C          -4.6612    0.2715   -0.0003 C.ar    1  LIG1        0.1369
      6 N          -5.3207   -0.9034   -0.0001 N.ar    1  LIG1       -0.2310
      7 H          -1.4054   -0.7607   -0.0009 H       1  LIG1        0.0657
      8 H          -2.5135   -3.1487    0.0004 H       1  LIG1        0.0647
      9 N          -5.8301   -4.1286    0.0003 N.1     1  LIG1       -0.1893
     10 C          -5.2431   -3.1437    0.0002 C.1     1  LIG1        0.1191
     11 O          -2.6846    1.5410   -0.0003 O.3     1  LIG1       -0.2856
     12 C          -1.2643    1.3748   -0.0004 C.3     2  LIG2       -0.0681
     13 H          -0.7927    2.3353   -0.0008 H       1  LIG1        0.0227
     14 H          -0.9685    0.8326    0.8734 H       1  LIG1        0.0227
     15 H          -0.9687    0.8321   -0.8739 H       1  LIG1        0.0227
     16 C          -5.4065    1.3366   -0.0004 C.ar    1  LIG1        0.0938
     17 C          -5.0755    2.6447    0.1648 C.ar    1  LIG1        0.0946
     18 C          -6.2849    3.4064    0.0761 C.ar    1  LIG1        0.1651
     19 C          -7.3015    2.5305   -0.1411 C.ar    1  LIG1        0.1109
     20 N          -6.7682    1.2621   -0.1882 N.ar    1  LIG1       -0.3472
     21 H          -7.2844    0.4255   -0.3351 H       1  LIG1        0.1662
     22 N          -3.8801    3.1138    0.3674 N.pl3   1  LIG1       -0.3534
     23 H          -3.2070    2.5009   -0.0463 H       1  LIG1        0.1425
     24 H          -3.8035    4.0210   -0.0463 H       1  LIG1        0.1425
     25 O          -6.3944    4.6974    0.1827 O.3     1  LIG1       -0.5030
     26 H          -7.3231    4.9392    0.2090 H       1  LIG1        0.2923
     27 C          -8.5761    2.7378   -0.2907 C.ar    1  LIG1        0.1095
     28 C          -9.4660    2.1759   -1.1511 C.ar    1  LIG1        0.1503
     29 C         -10.7439    2.7679   -0.8918 C.ar    1  LIG1        0.0172
     30 C         -10.5790    3.6643    0.1168 C.ar    1  LIG1        0.0547
     31 N          -9.2532    3.6494    0.4875 N.ar    1  LIG1       -0.3497
     32 H          -8.8492    4.2077    1.2037 H       1  LIG1        0.1661
     33 O          -9.2016    1.2693   -2.0446 O.3     1  LIG1       -0.4927
     34 C         -10.3986    0.5591   -2.3727 C.3     1  LIG1        0.0789
     35 H         -10.1806   -0.1869   -3.1082 H       1  LIG1        0.0660
     36 H         -10.7873    0.0897   -1.4931 H       1  LIG1        0.0660
     37 H         -11.1237    1.2428   -2.7622 H       1  LIG1        0.0660
     38 C         -11.8585    2.4998   -1.5054 C.3     1  LIG1       -0.0342
     39 H         -12.1915    1.5212   -1.2290 H       1  LIG1        0.0279
     40 H         -11.7015    2.5376   -2.5632 H       1  LIG1        0.0279
     41 H         -12.5999    3.2202   -1.2290 H       1  LIG1        0.0279
     42 C         -12.6665    4.7339    0.0700 C.ar    1  LIG1        0.0339
     43 C         -13.5636    5.5858    0.7429 C.ar    1  LIG1       -0.0440
     44 C         -11.4391    4.4448    0.7007 C.ar    1  LIG1        0.0158
     45 C         -13.2546    6.1266    1.9890 C.ar    1  LIG1       -0.0399
     46 H         -14.5162    5.8222    0.2741 H       1  LIG1        0.0630
     47 C         -11.1302    4.9843    1.9447 C.ar    1  LIG1       -0.0308
     48 C         -12.0347    5.8283    2.5974 C.ar    1  LIG1        0.0252
     49 H         -10.1772    4.7464    2.4103 H       1  LIG1        0.0643
     50 H         -14.1064    6.9094    2.5820 H       1  LIG1        0.0636
     51 C         -13.0111    4.2599   -1.0904 C.1     1  LIG1       -0.0690
     52 C         -13.3294    3.8219   -2.1627 C.1     1  LIG1       -0.1139
     53 H         -13.6130    3.4317   -3.1178 H       1  LIG1        0.1232
     54 N         -11.7404    6.3299    3.7601 N.pl3   1  LIG1       -0.3579
     55 H         -10.7474    6.4089    3.8473 H       1  LIG1        0.1423
     56 H         -12.1557    7.2353    3.8473 H       1  LIG1        0.1423
@<TRIPOS>BOND
     1    53    52    1
     2    35    34    1
     3    37    34    1
     4    40    38    1
     5    34    33    1
     6    34    36    1
     7    52    51    3
     8    33    28    1
     9    38    41    1
    10    38    39    1
    11    38    29    1
    12    28    29   ar
    13    28    27   ar
    14    51    42    1
    15    29    30   ar
    16    15    12    1
    17    21    20    1
    18    27    19    1
    19    27    31   ar
    20    20    19   ar
    21    20    16   ar
    22    19    18   ar
    23    24    22    1
    24    23    22    1
    25     7     3    1
    26    13    12    1
    27    12    14    1
    28    16     5    1
    29    16    17   ar
    30    11     4    1
    31     5     6   ar
    32     5     4   ar
    33     6     1   ar
    34     4     3   ar
    35     1     2   ar
    36     1    10    1
    37     2     3   ar
    38     2     8    1
    39    10     9    3
    40    42    44   ar
    41    42    43   ar
    42    18    17   ar
    43    18    25    1
    44    30    31   ar
    45    30    44    1
    46    17    22    1
    47    25    26    1
    48    46    43    1
    49    31    32    1
    50    44    47   ar
    51    43    45   ar
    52    47    49    1
    53    47    48   ar
    54    45    50    1
    55    45    48   ar
    56    48    54    1
    57    54    55    1
    58    54    56    1
