@<TRIPOS>MOLECULE
mol_data/noopt/geoms/mol2/6dl4da-4ah-13fl.out
 52 55 0 0 0
SMALL
GASTEIGER

@<TRIPOS>ATOM
      1 C          -4.5775   -2.0270    0.0001 C.ar    1  LIG1        0.1410
      2 C          -3.1706   -2.0270    0.0001 C.ar    1  LIG1       -0.0223
      3 C          -2.5039   -0.8004    0.0001 C.ar    1  LIG1       -0.0151
      4 C          -3.2580    0.3743   -0.0001 C.ar    1  LIG1        0.1461
      5 C          -4.6612    0.2715   -0.0003 C.ar    1  LIG1        0.1151
      6 N          -5.3207   -0.9034   -0.0001 N.ar    1  LIG1       -0.2326
      7 H          -1.4054   -0.7607   -0.0009 H       1  LIG1        0.0656
      8 H          -2.5135   -3.1487    0.0004 H       1  LIG1        0.0647
      9 N          -5.8301   -4.1286    0.0003 N.1     1  LIG1       -0.1893
     10 C          -5.2431   -3.1437    0.0002 C.1     1  LIG1        0.1191
     11 O          -2.6846    1.5410   -0.0003 O.3     1  LIG1       -0.4930
     12 C          -1.2643    1.3748   -0.0004 C.3     1  LIG1        0.0789
     13 H          -0.7927    2.3353   -0.0008 H       1  LIG1        0.0660
     14 H          -0.9685    0.8326    0.8734 H       1  LIG1        0.0660
     15 H          -0.9687    0.8321   -0.8739 H       1  LIG1        0.0660
     16 C          -4.8078    2.6129    0.0216 C.ar    1  LIG1        0.0616
     17 C          -5.6586    3.7351    0.0221 C.ar    1  LIG1       -0.0360
     18 C          -5.4065    1.3366   -0.0004 C.ar    1  LIG1        0.0214
     19 C          -7.0444    3.5952    0.0010 C.ar    1  LIG1       -0.0166
     20 H          -5.2175    4.7293    0.0391 H       1  LIG1        0.0637
     21 C          -6.7900    1.1963   -0.0215 C.ar    1  LIG1       -0.0506
     22 C          -7.6183    2.3234   -0.0211 C.ar    1  LIG1       -0.0533
     23 H          -7.2275    0.2014   -0.0382 H       1  LIG1        0.0625
     24 N          -2.3889    2.9782    0.0594 N.1     1  LIG1       -0.1908
     25 C          -3.5225    2.8070    0.0417 C.1     1  LIG1        0.0998
     26 H          -8.9109    2.1862   -0.0407 H       1  LIG1        0.0624
     27 C          -7.2138    5.9350    0.0246 C.ar    1  LIG1       -0.0533
     28 C          -8.0754    7.0490    0.0262 C.ar    1  LIG1       -0.0502
     29 C          -7.8000    4.6530    0.0019 C.ar    1  LIG1       -0.0161
     30 C          -9.4598    6.8956    0.0056 C.ar    1  LIG1        0.0226
     31 H          -7.6440    8.0474    0.0437 H       1  LIG1        0.0625
     32 C          -9.1821    4.4993   -0.0186 C.ar    1  LIG1       -0.0327
     33 C         -10.0213    5.6183   -0.0170 C.ar    1  LIG1        0.0345
     34 H          -9.6100    3.5002   -0.0357 H       1  LIG1        0.0642
     35 H          -5.9304    6.1416    0.0441 H       1  LIG1        0.0624
     36 N         -11.3125    5.4685   -0.0361 N.pl3   1  LIG1       -0.3574
     37 H         -11.7308    6.2420   -0.5124 H       1  LIG1        0.1423
     38 H         -11.5426    4.6199   -0.5124 H       1  LIG1        0.1423
     39 C         -10.2257    7.9461    0.0077 C.ar    1  LIG1        0.0940
     40 C          -9.9094    9.2681    0.0087 C.ar    1  LIG1        0.1844
     41 C         -11.1391   10.0021    0.0121 C.ar    1  LIG1        0.1792
     42 C         -12.1527    9.0962    0.0113 C.ar    1  LIG1        0.0481
     43 N         -11.5980    7.8362    0.0090 N.ar    1  LIG1       -0.3546
     44 H         -12.1074    6.9827    0.0078 H       1  LIG1        0.1656
     45 H         -13.4408    9.2716    0.0132 H       1  LIG1        0.0845
     46 O          -8.7102    9.7700    0.0083 O.3     1  LIG1       -0.5019
     47 H          -8.7640   10.7285    0.0082 H       1  LIG1        0.2924
     48 O         -11.2666   11.2958    0.0150 O.3     1  LIG1       -0.4900
     49 C          -9.9719   11.9030    0.0160 C.3     1  LIG1        0.0790
     50 H         -10.0773   12.9678    0.0182 H       1  LIG1        0.0660
     51 H          -9.4346   11.5960    0.8890 H       1  LIG1        0.0660
     52 H          -9.4350   11.5996   -0.8583 H       1  LIG1        0.0660
@<TRIPOS>BOND
     1    15    12    1
     2    52    49    1
     3    38    36    1
     4    37    36    1
     5    26    22    1
     6    23    21    1
     7    36    33    1
     8    34    32    1
     9    21    22   ar
    10    21    18   ar
    11    22    19   ar
    12    32    33   ar
    13    32    29   ar
    14    33    30   ar
    15     7     3    1
    16    13    12    1
    17    12    11    1
    18    12    14    1
    19    18     5    1
    20    18    16   ar
    21    11     4    1
    22     5     6   ar
    23     5     4   ar
    24     6     1   ar
    25     4     3   ar
    26     1     2   ar
    27     1    10    1
    28     2     3   ar
    29     2     8    1
    30    10     9    3
    31    19    29    1
    32    19    17   ar
    33    29    27   ar
    34    30    39    1
    35    30    28   ar
    36    39    40   ar
    37    39    43   ar
    38    44    43    1
    39    47    46    1
    40    46    40    1
    41    40    41   ar
    42    43    42   ar
    43    42    41   ar
    44    42    45    1
    45    41    48    1
    46    48    49    1
    47    49    50    1
    48    49    51    1
    49    16    17   ar
    50    16    25    1
    51    17    20    1
    52    27    28   ar
    53    27    35    1
    54    28    31    1
    55    25    24    3
