@<TRIPOS>MOLECULE
mol_data/noopt/geoms/mol2/6dl6aa-13ai6ii.out
 51 54 0 0 0
SMALL
GASTEIGER

@<TRIPOS>ATOM
      1 C          -4.5775   -2.0270    0.0001 C.ar    1  LIG1        0.1410
      2 C          -3.1706   -2.0270    0.0001 C.ar    1  LIG1       -0.0223
      3 C          -2.5039   -0.8004    0.0001 C.ar    1  LIG1       -0.0151
      4 C          -3.2580    0.3743   -0.0001 C.ar    1  LIG1        0.1461
      5 C          -4.6612    0.2715   -0.0003 C.ar    1  LIG1        0.1154
      6 N          -5.3207   -0.9034   -0.0001 N.ar    1  LIG1       -0.2326
      7 H          -1.4054   -0.7607   -0.0009 H       1  LIG1        0.0656
      8 H          -2.5135   -3.1487    0.0004 H       1  LIG1        0.0647
      9 N          -5.8301   -4.1286    0.0003 N.1     1  LIG1       -0.1893
     10 C          -5.2431   -3.1437    0.0002 C.1     1  LIG1        0.1191
     11 O          -2.6846    1.5410   -0.0003 O.3     1  LIG1       -0.4930
     12 C          -1.2643    1.3748   -0.0004 C.3     1  LIG1        0.0789
     13 H          -0.7927    2.3353   -0.0008 H       1  LIG1        0.0660
     14 H          -0.9685    0.8326    0.8734 H       1  LIG1        0.0660
     15 H          -0.9687    0.8321   -0.8739 H       1  LIG1        0.0660
     16 C          -6.8087    1.2234   -0.0215 C.ar    1  LIG1        0.0376
     17 C          -5.4065    1.3366   -0.0004 C.ar    1  LIG1        0.0221
     18 C          -4.8409    2.6128    0.0206 C.ar    1  LIG1       -0.0489
     19 C          -5.6872    3.7230    0.0196 C.ar    1  LIG1       -0.0336
     20 C          -7.0774    3.5076   -0.0025 C.ar    1  LIG1        0.0871
     21 N          -7.6400    2.2835   -0.0227 N.ar    1  LIG1       -0.2529
     22 H          -3.7493    2.7408    0.0363 H       1  LIG1        0.0625
     23 H          -7.3820    0.0568   -0.0413 H       1  LIG1        0.0836
     24 H          -5.2098    4.9320    0.0384 H       1  LIG1        0.0640
     25 C          -7.9061    4.5092   -0.0043 C.ar    1  LIG1        0.0656
     26 C          -7.6712    5.8482   -0.0058 C.ar    1  LIG1       -0.0314
     27 C          -8.9435    6.5055   -0.0062 C.ar    1  LIG1       -0.0245
     28 C          -9.8998    5.5394   -0.0067 C.ar    1  LIG1        0.0516
     29 N          -9.2691    4.3157   -0.0051 N.ar    1  LIG1       -0.3527
     30 H          -9.7253    3.4326   -0.0051 H       1  LIG1        0.1660
     31 H          -6.5050    6.4225   -0.0053 H       1  LIG1        0.0642
     32 C          -9.1499    7.7894   -0.0066 C.3     1  LIG1       -0.0377
     33 H         -10.0691    8.0029    0.4977 H       1  LIG1        0.0278
     34 H          -9.2066    8.1412   -1.0156 H       1  LIG1        0.0278
     35 H          -8.3440    8.2803    0.4977 H       1  LIG1        0.0278
     36 C         -11.9954    4.4778   -0.0076 C.ar    1  LIG1        0.0473
     37 C         -11.1962    5.6357   -0.0074 C.ar    1  LIG1        0.0198
     38 C         -11.8270    6.8811   -0.0076 C.ar    1  LIG1       -0.0466
     39 C         -13.2222    6.9277   -0.0081 C.ar    1  LIG1       -0.0317
     40 C         -13.9346    5.7145   -0.0085 C.ar    1  LIG1        0.0308
     41 N         -13.3422    4.5044   -0.0081 N.ar    1  LIG1       -0.2593
     42 H         -11.2358    7.8078   -0.0084 H       1  LIG1        0.0628
     43 H         -15.2345    5.7061   -0.0090 H       1  LIG1        0.0832
     44 C         -11.4542    3.2954   -0.0073 C.3     1  LIG1       -0.0217
     45 H         -10.5115    3.3348    0.4972 H       1  LIG1        0.0293
     46 H         -11.3057    2.9709   -1.0161 H       1  LIG1        0.0293
     47 H         -12.1003    2.6077    0.4971 H       1  LIG1        0.0293
     48 C         -13.8569    8.0626   -0.0085 C.3     1  LIG1       -0.0383
     49 H         -14.7935    7.9477    0.4958 H       1  LIG1        0.0278
     50 H         -14.0309    8.3737   -1.0175 H       1  LIG1        0.0278
     51 H         -13.2685    8.8005    0.4957 H       1  LIG1        0.0278
@<TRIPOS>BOND
     1    50    48    1
     2    46    44    1
     3    34    32    1
     4    15    12    1
     5    23    16    1
     6    21    16   ar
     7    21    20   ar
     8    16    17   ar
     9    43    40    1
    10    48    39    1
    11    48    51    1
    12    48    49    1
    13    40    39   ar
    14    40    41   ar
    15    42    38    1
    16    39    38   ar
    17    41    36   ar
    18    38    37   ar
    19    36    37   ar
    20    36    44    1
    21    37    28    1
    22    44    47    1
    23    44    45    1
    24    28    27   ar
    25    28    29   ar
    26    32    27    1
    27    32    35    1
    28    32    33    1
    29    27    26   ar
    30    26    31    1
    31    26    25   ar
    32    30    29    1
    33    29    25   ar
    34    25    20    1
    35    20    19   ar
    36     7     3    1
    37    13    12    1
    38    12    11    1
    39    12    14    1
    40    17     5    1
    41    17    18   ar
    42     5     6   ar
    43     5     4   ar
    44    11     4    1
    45     6     1   ar
    46     4     3   ar
    47     1     2   ar
    48     1    10    1
    49     3     2   ar
    50     2     8    1
    51    10     9    3
    52    19    18   ar
    53    19    24    1
    54    18    22    1
