@<TRIPOS>MOLECULE
mol_data/noopt/geoms/mol2/6dl6dl.out
 30 31 0 0 0
SMALL
GASTEIGER

@<TRIPOS>ATOM
      1 C          -4.5775   -2.0270    0.0001 C.ar    1  LIG1        0.1410
      2 C          -3.1706   -2.0270    0.0001 C.ar    1  LIG1       -0.0223
      3 C          -2.5039   -0.8004    0.0001 C.ar    1  LIG1       -0.0151
      4 C          -3.2580    0.3743   -0.0001 C.ar    1  LIG1        0.1461
      5 C          -4.6612    0.2715   -0.0003 C.ar    1  LIG1        0.1167
      6 N          -5.3207   -0.9034   -0.0001 N.ar    1  LIG1       -0.2326
      7 H          -1.4054   -0.7607   -0.0009 H       1  LIG1        0.0656
      8 H          -2.5135   -3.1487    0.0004 H       1  LIG1        0.0647
      9 N          -5.8301   -4.1286    0.0003 N.1     1  LIG1       -0.1893
     10 C          -5.2431   -3.1437    0.0002 C.1     1  LIG1        0.1191
     11 O          -2.6846    1.5410   -0.0003 O.3     1  LIG1       -0.4930
     12 C          -1.2643    1.3748   -0.0004 C.3     1  LIG1        0.0789
     13 H          -0.7927    2.3353   -0.0008 H       1  LIG1        0.0660
     14 H          -0.9685    0.8326    0.8734 H       1  LIG1        0.0660
     15 H          -0.9687    0.8321   -0.8739 H       1  LIG1        0.0660
     16 C          -6.8088    1.2233   -0.0003 C.ar    1  LIG1        0.1495
     17 C          -5.4065    1.3366   -0.0004 C.ar    1  LIG1        0.0433
     18 C          -4.8408    2.6129   -0.0003 C.ar    1  LIG1       -0.0064
     19 C          -5.6871    3.7231   -0.0003 C.ar    1  LIG1        0.1388
     20 C          -7.0774    3.5076   -0.0004 C.ar    1  LIG1        0.0707
     21 N          -7.6401    2.2834   -0.0003 N.ar    1  LIG1       -0.2403
     22 H          -3.7491    2.7410   -0.0014 H       1  LIG1        0.0662
     23 H          -7.9061    4.5092   -0.0003 H       1  LIG1        0.0867
     24 N          -7.8881   -0.9724   -0.0003 N.1     1  LIG1       -0.1893
     25 C          -7.3823    0.0566   -0.0003 C.1     1  LIG1        0.1198
     26 O          -5.2095    4.9322   -0.0004 O.3     1  LIG1       -0.4936
     27 C          -3.7804    4.8809   -0.0005 C.3     1  LIG1        0.0789
     28 H          -3.3877    5.8763   -0.0007 H       1  LIG1        0.0660
     29 H          -3.4420    4.3642    0.8733 H       1  LIG1        0.0660
     30 H          -3.4421    4.3639   -0.8740 H       1  LIG1        0.0660
@<TRIPOS>BOND
     1    30    27    1
     2    15    12    1
     3    22    18    1
     4     7     3    1
     5    13    12    1
     6    28    27    1
     7    27    26    1
     8    27    29    1
     9    12    11    1
    10    12    14    1
    11    17     5    1
    12    17    16   ar
    13    17    18   ar
    14    20    21   ar
    15    20    23    1
    16    20    19   ar
    17    26    19    1
    18     5     6   ar
    19     5     4   ar
    20    11     4    1
    21    16    25    1
    22    16    21   ar
    23    18    19   ar
    24    25    24    3
    25     6     1   ar
    26     4     3   ar
    27     1     2   ar
    28     1    10    1
    29     3     2   ar
    30     2     8    1
    31    10     9    3
