@<TRIPOS>MOLECULE
mol_data/noopt/geoms/mol2/6dl6dl6dl6dl.out
 58 61 0 0 0
SMALL
GASTEIGER

@<TRIPOS>ATOM
      1 C          -4.5775   -2.0270    0.0001 C.ar    1  LIG1        0.1410
      2 C          -3.1706   -2.0270    0.0001 C.ar    1  LIG1       -0.0223
      3 C          -2.5039   -0.8004    0.0001 C.ar    1  LIG1       -0.0151
      4 C          -3.2580    0.3743   -0.0001 C.ar    1  LIG1        0.1461
      5 C          -4.6612    0.2715   -0.0003 C.ar    1  LIG1        0.1167
      6 N          -5.3207   -0.9034   -0.0001 N.ar    1  LIG1       -0.2326
      7 H          -1.4054   -0.7607   -0.0009 H       1  LIG1        0.0656
      8 H          -2.5135   -3.1487    0.0004 H       1  LIG1        0.0647
      9 N          -5.8301   -4.1286    0.0003 N.1     1  LIG1       -0.1893
     10 C          -5.2431   -3.1437    0.0002 C.1     1  LIG1        0.1191
     11 O          -2.6846    1.5410   -0.0003 O.3     1  LIG1       -0.4930
     12 C          -1.2643    1.3748   -0.0004 C.3     1  LIG1        0.0789
     13 H          -0.7927    2.3353   -0.0008 H       1  LIG1        0.0660
     14 H          -0.9685    0.8326    0.8734 H       1  LIG1        0.0660
     15 H          -0.9687    0.8321   -0.8739 H       1  LIG1        0.0660
     16 C          -6.8088    1.2233   -0.0003 C.ar    1  LIG1        0.1502
     17 C          -5.4065    1.3366   -0.0004 C.ar    1  LIG1        0.0433
     18 C          -4.8408    2.6129   -0.0003 C.ar    1  LIG1       -0.0058
     19 C          -5.6871    3.7231   -0.0003 C.ar    1  LIG1        0.1467
     20 C          -7.0774    3.5076   -0.0004 C.ar    1  LIG1        0.1168
     21 N          -7.6401    2.2834   -0.0003 N.ar    1  LIG1       -0.2319
     22 H          -3.7491    2.7410   -0.0014 H       1  LIG1        0.0662
     23 N          -7.8881   -0.9724   -0.0003 N.1     1  LIG1       -0.1893
     24 C          -7.3823    0.0566   -0.0003 C.1     1  LIG1        0.1198
     25 O          -5.2095    4.9322   -0.0004 O.3     1  LIG1       -0.4929
     26 C          -3.7804    4.8809   -0.0005 C.3     1  LIG1        0.0789
     27 H          -3.3877    5.8763   -0.0007 H       1  LIG1        0.0660
     28 H          -3.4420    4.3642    0.8733 H       1  LIG1        0.0660
     29 H          -3.4421    4.3639   -0.8740 H       1  LIG1        0.0660
     30 C          -9.2948    4.2833   -0.0001 C.ar    1  LIG1        0.1502
     31 C          -7.9061    4.5092   -0.0003 C.ar    1  LIG1        0.0433
     32 C          -7.4450    5.8270   -0.0001 C.ar    1  LIG1       -0.0058
     33 C          -8.3780    6.8653    0.0002 C.ar    1  LIG1        0.1467
     34 C          -9.7465    6.5385    0.0002 C.ar    1  LIG1        0.1168
     35 N         -10.2087    5.2730    0.0002 N.ar    1  LIG1       -0.2319
     36 H          -6.3672    6.0425   -0.0012 H       1  LIG1        0.0662
     37 N         -10.1937    2.0078   -0.0002 N.1     1  LIG1       -0.1893
     38 C          -9.7724    3.0742   -0.0002 C.1     1  LIG1        0.1198
     39 O          -7.9993    8.1090    0.0002 O.3     1  LIG1       -0.4929
     40 C          -6.5708    8.1730    0.0001 C.3     1  LIG1        0.0789
     41 H          -6.2596    9.1967   -0.0000 H       1  LIG1        0.0660
     42 H          -6.1918    7.6852    0.8739 H       1  LIG1        0.0660
     43 H          -6.1919    7.6849   -0.8734 H       1  LIG1        0.0660
     44 C         -12.0191    7.1331    0.0008 C.ar    1  LIG1        0.1495
     45 C         -10.6531    7.4702    0.0005 C.ar    1  LIG1        0.0433
     46 C         -10.2997    8.8208    0.0008 C.ar    1  LIG1       -0.0064
     47 C         -11.3132    9.7806    0.0012 C.ar    1  LIG1        0.1388
     48 C         -12.6510    9.3446    0.0013 C.ar    1  LIG1        0.0707
     49 N         -13.0098    8.0460    0.0012 N.ar    1  LIG1       -0.2403
     50 H          -9.2427    9.1225   -0.0004 H       1  LIG1        0.0662
     51 H         -13.6297   10.2002    0.0018 H       1  LIG1        0.0867
     52 N         -12.7318    4.7926    0.0004 N.1     1  LIG1       -0.1893
     53 C         -12.3978    5.8895    0.0006 C.1     1  LIG1        0.1198
     54 O         -11.0360   11.0507    0.0014 O.3     1  LIG1       -0.4936
     55 C          -9.6173   11.2296    0.0013 C.3     1  LIG1        0.0789
     56 H          -9.3895   12.2751    0.0013 H       1  LIG1        0.0660
     57 H          -9.2003   10.7738    0.8751 H       1  LIG1        0.0660
     58 H          -9.2003   10.7737   -0.8722 H       1  LIG1        0.0660
@<TRIPOS>BOND
     1    29    26    1
     2    15    12    1
     3    43    40    1
     4    58    55    1
     5    22    18    1
     6    36    32    1
     7     7     3    1
     8    13    12    1
     9    27    26    1
    10    26    25    1
    11    26    28    1
    12    50    46    1
    13    12    11    1
    14    12    14    1
    15    17     5    1
    16    17    16   ar
    17    17    18   ar
    18    20    21   ar
    19    20    31    1
    20    20    19   ar
    21    25    19    1
    22    11     4    1
    23     5     6   ar
    24     5     4   ar
    25    16    24    1
    26    16    21   ar
    27    18    19   ar
    28    24    23    3
    29    31    30   ar
    30    31    32   ar
    31    37    38    3
    32    38    30    1
    33     6     1   ar
    34     4     3   ar
    35    30    35   ar
    36    32    33   ar
    37    41    40    1
    38     1     2   ar
    39     1    10    1
    40     2     3   ar
    41     2     8    1
    42    40    39    1
    43    40    42    1
    44    35    34   ar
    45    34    33   ar
    46    34    45    1
    47    33    39    1
    48    10     9    3
    49    52    53    3
    50    45    44   ar
    51    45    46   ar
    52    53    44    1
    53    44    49   ar
    54    46    47   ar
    55    49    48   ar
    56    47    48   ar
    57    47    54    1
    58    56    55    1
    59    48    51    1
    60    55    54    1
    61    55    57    1
