@<TRIPOS>MOLECULE
mol_data/noopt/geoms/mol2/6dl6ad-12da12ae-6ae-6ii13ad12ef-.out
 88 96 0 0 0
SMALL
GASTEIGER

@<TRIPOS>ATOM
      1 C          -4.5775   -2.0270    0.0001 C.ar    1  LIG1        0.1410
      2 C          -3.1706   -2.0270    0.0001 C.ar    1  LIG1       -0.0223
      3 C          -2.5039   -0.8004    0.0001 C.ar    1  LIG1       -0.0151
      4 C          -3.2580    0.3743   -0.0001 C.ar    1  LIG1        0.1461
      5 C          -4.6612    0.2715   -0.0003 C.ar    1  LIG1        0.1154
      6 N          -5.3207   -0.9034   -0.0001 N.ar    1  LIG1       -0.2326
      7 H          -1.4054   -0.7607   -0.0009 H       1  LIG1        0.0656
      8 H          -2.5135   -3.1487    0.0004 H       1  LIG1        0.0647
      9 N          -5.8301   -4.1286    0.0003 N.1     1  LIG1       -0.1893
     10 C          -5.2431   -3.1437    0.0002 C.1     1  LIG1        0.1191
     11 O          -2.6846    1.5410   -0.0003 O.3     1  LIG1       -0.4930
     12 C          -1.2643    1.3748   -0.0004 C.3     1  LIG1        0.0789
     13 H          -0.7927    2.3353   -0.0008 H       1  LIG1        0.0660
     14 H          -0.9685    0.8326    0.8734 H       1  LIG1        0.0660
     15 H          -0.9687    0.8321   -0.8739 H       1  LIG1        0.0660
     16 C          -6.8087    1.2234   -0.0215 C.ar    1  LIG1        0.0377
     17 C          -5.4065    1.3366   -0.0004 C.ar    1  LIG1        0.0224
     18 C          -4.8409    2.6128    0.0206 C.ar    1  LIG1       -0.0437
     19 C          -5.6872    3.7230    0.0196 C.ar    1  LIG1        0.0098
     20 C          -7.0774    3.5076   -0.0025 C.ar    1  LIG1        0.1115
     21 N          -7.6400    2.2835   -0.0227 N.ar    1  LIG1       -0.2509
     22 H          -3.7493    2.7408    0.0363 H       1  LIG1        0.0629
     23 H          -7.3820    0.0568   -0.0413 H       1  LIG1        0.0836
     24 N          -4.7887    5.9983    0.0550 N.3     1  LIG1       -0.1262
     25 C          -5.2098    4.9320    0.0384 C.3     1  LIG1        0.1366
     26 C          -7.9061    4.5092   -0.0043 C.ar    1  LIG1        0.1594
     27 C          -7.7875    5.8836   -0.0056 C.ar    1  LIG1        0.0282
     28 C          -9.1341    6.4161   -0.0073 C.ar    1  LIG1       -0.0069
     29 C          -9.9866    5.3313   -0.0070 C.ar    1  LIG1        0.1710
     30 O          -9.2531    4.1444   -0.0052 O.2     1  LIG1       -0.4498
     31 N          -5.7312    7.2092   -0.0050 N.3     1  LIG1       -0.1261
     32 C          -6.6949    6.5880   -0.0053 C.3     1  LIG1        0.1382
     33 H          -9.4502    7.6771   -0.0088 H       1  LIG1        0.0660
     34 C         -11.2761    5.1666   -0.0079 C.ar    1  LIG1        0.1718
     35 C         -12.3742    6.0017   -0.0086 C.ar    1  LIG1        0.0033
     36 C         -13.5442    5.1485   -0.0095 C.ar    1  LIG1        0.0711
     37 C         -13.0833    3.8481   -0.0094 C.ar    1  LIG1        0.1526
     38 O         -11.6881    3.8332   -0.0085 O.2     1  LIG1       -0.4504
     39 H         -12.3851    7.3017   -0.0084 H       1  LIG1        0.0669
     40 C         -14.7788    5.5557   -0.0103 C.1     1  LIG1       -0.0658
     41 C         -15.9195    5.9319   -0.0111 C.1     1  LIG1       -0.1138
     42 H         -16.9357    6.2671   -0.0118 H       1  LIG1        0.1232
     43 C         -12.8351    1.5122   -0.0312 C.ar    1  LIG1        0.0390
     44 C         -13.6337    2.6703   -0.0099 C.ar    1  LIG1        0.0378
     45 C         -15.0218    2.5227    0.0108 C.ar    1  LIG1       -0.0321
     46 C         -15.5607    1.2350    0.0094 C.ar    1  LIG1        0.0513
     47 C         -14.6796    0.1383   -0.0129 C.ar    1  LIG1        0.0880
     48 N         -13.3382    0.2625   -0.0328 N.ar    1  LIG1       -0.2530
     49 H         -15.6780    3.4044    0.0268 H       1  LIG1        0.0638
     50 H         -11.5381    1.5983   -0.0508 H       1  LIG1        0.0837
     51 C         -16.8466    1.0446    0.0281 C.1     1  LIG1       -0.0675
     52 C         -18.0347    0.8687    0.0452 C.1     1  LIG1       -0.1138
     53 H         -19.0930    0.7120    0.0606 H       1  LIG1        0.1232
     54 C         -14.2440   -2.1700   -0.0160 C.ar    1  LIG1        0.0482
     55 C         -15.1334   -1.0799   -0.0150 C.ar    1  LIG1        0.0228
     56 C         -16.5052   -1.3388   -0.0160 C.ar    1  LIG1       -0.0458
     57 C         -16.9387   -2.6657   -0.0181 C.ar    1  LIG1       -0.0224
     58 C         -15.9720   -3.6879   -0.0192 C.ar    1  LIG1        0.0903
     59 N         -14.6447   -3.4562   -0.0181 N.ar    1  LIG1       -0.2495
     60 H         -17.2304   -0.5127   -0.0163 H       1  LIG1        0.0628
     61 C         -12.9576   -1.9798   -0.0150 C.3     1  LIG1       -0.0217
     62 H         -12.7330   -1.0634    0.4897 H       1  LIG1        0.0293
     63 H         -12.6040   -1.9274   -1.0236 H       1  LIG1        0.0293
     64 H         -12.4774   -2.7919    0.4896 H       1  LIG1        0.0293
     65 C         -18.2055   -2.9590   -0.0193 C.3     1  LIG1       -0.0376
     66 H         -18.3564   -3.8907    0.4848 H       1  LIG1        0.0278
     67 H         -18.5521   -3.0393   -1.0285 H       1  LIG1        0.0278
     68 H         -18.7505   -2.1884    0.4847 H       1  LIG1        0.0278
     69 C         -16.3261   -4.9388   -0.0211 C.ar    1  LIG1        0.0670
     70 C         -17.5617   -5.5056   -0.0228 C.ar    1  LIG1       -0.0168
     71 C         -17.3806   -6.9261   -0.0234 C.ar    1  LIG1        0.0807
     72 C         -16.0423   -7.1649   -0.0239 C.ar    1  LIG1        0.1015
     73 N         -15.3930   -5.9509   -0.0220 N.ar    1  LIG1       -0.3495
     74 H         -14.4070   -5.8252   -0.0220 H       1  LIG1        0.1661
     75 H         -18.6966   -4.8715   -0.0223 H       1  LIG1        0.0652
     76 N         -19.1486   -8.6172   -0.0244 N.1     1  LIG1       -0.1908
     77 C         -18.3200   -7.8247   -0.0239 C.1     1  LIG1        0.1014
     78 C         -15.3856   -8.2868   -0.0246 C.ar    1  LIG1        0.1711
     79 C         -15.7238   -9.6242   -0.0252 C.ar    1  LIG1        0.1132
     80 C         -14.4804  -10.3665   -0.0260 C.ar    1  LIG1        0.1709
     81 C         -13.4645   -9.4330   -0.0259 C.ar    1  LIG1        0.1352
     82 O         -13.9974   -8.1434   -0.0252 O.2     1  LIG1       -0.4564
     83 H         -12.1653   -9.4779   -0.0263 H       1  LIG1        0.1068
     84 C         -16.9156  -10.1435   -0.0250 C.1     1  LIG1       -0.0621
     85 C         -18.0167  -10.6234   -0.0249 C.1     1  LIG1       -0.1137
     86 H         -18.9976  -11.0509   -0.0247 H       1  LIG1        0.1232
     87 O         -14.3714  -11.6619   -0.0267 O.3     1  LIG1       -0.5028
     88 H         -13.4428  -11.9053   -0.0269 H       1  LIG1        0.2923
@<TRIPOS>BOND
     1    67    65    1
     2    63    61    1
     3    15    12    1
     4    50    43    1
     5    23    16    1
     6    48    43   ar
     7    48    47   ar
     8    43    44   ar
     9    88    87    1
    10    87    80    1
    11    83    81    1
    12    80    81   ar
    13    80    79   ar
    14    81    82   ar
    15    79    84    1
    16    79    78   ar
    17    82    78   ar
    18    84    85    3
    19    85    86    1
    20    78    72    1
    21    76    77    3
    22    77    71    1
    23    72    71   ar
    24    72    73   ar
    25    71    70   ar
    26    70    75    1
    27    70    69   ar
    28    21    16   ar
    29    21    20   ar
    30    73    74    1
    31    73    69   ar
    32    16    17   ar
    33    69    58    1
    34    65    57    1
    35    65    68    1
    36    65    66    1
    37    58    57   ar
    38    58    59   ar
    39    57    56   ar
    40    59    54   ar
    41    60    56    1
    42    56    55   ar
    43    54    61    1
    44    54    55   ar
    45    61    64    1
    46    61    62    1
    47    55    47    1
    48    47    46   ar
    49    42    41    1
    50    41    40    3
    51    40    36    1
    52    44    37    1
    53    44    45   ar
    54    36    37   ar
    55    36    35   ar
    56    37    38   ar
    57    33    28    1
    58    35    39    1
    59    35    34   ar
    60    38    34   ar
    61    34    29    1
    62    28    29   ar
    63    28    27   ar
    64    29    30   ar
    65    27    32    1
    66    27    26   ar
    67    32    31    1
    68    30    26   ar
    69    31    24    1
    70    26    20    1
    71    20    19   ar
    72     7     3    1
    73    13    12    1
    74    12    11    1
    75    12    14    1
    76    17     5    1
    77    17    18   ar
    78    11     4    1
    79     5     4   ar
    80     5     6   ar
    81     4     3   ar
    82     6     1   ar
    83     1     2   ar
    84     1    10    1
    85     2     3   ar
    86     2     8    1
    87    10     9    3
    88    46    45   ar
    89    46    51    1
    90    45    49    1
    91    19    18   ar
    92    19    25    1
    93    18    22    1
    94    51    52    3
    95    25    24    1
    96    52    53    1
