@<TRIPOS>MOLECULE
mol_data/noopt/geoms/mol2/6dl6ie(150)4lf(100)4al(290).out
 59 61 0 0 0
SMALL
GASTEIGER

@<TRIPOS>ATOM
      1 C          -4.5775   -2.0270    0.0001 C.ar    1  LIG1        0.1410
      2 C          -3.1706   -2.0270    0.0001 C.ar    1  LIG1       -0.0223
      3 C          -2.5039   -0.8004    0.0001 C.ar    1  LIG1       -0.0154
      4 C          -3.2580    0.3743   -0.0001 C.ar    1  LIG1        0.1426
      5 C          -4.6612    0.2715   -0.0003 C.ar    1  LIG1        0.1122
      6 N          -5.3207   -0.9034   -0.0001 N.ar    1  LIG1       -0.2329
      7 H          -1.4054   -0.7607   -0.0009 H       1  LIG1        0.0655
      8 H          -2.5135   -3.1487    0.0004 H       1  LIG1        0.0647
      9 N          -5.8301   -4.1286    0.0003 N.1     1  LIG1       -0.1893
     10 C          -5.2431   -3.1437    0.0002 C.1     1  LIG1        0.1191
     11 O          -2.6846    1.5410   -0.0003 O.3     1  LIG1       -0.5046
     12 C          -1.2643    1.3748   -0.0004 C.3     2  LIG2       -0.0681
     13 H          -0.7927    2.3353   -0.0008 H       1  LIG1        0.0227
     14 H          -0.9685    0.8326    0.8734 H       1  LIG1        0.0227
     15 H          -0.9687    0.8321   -0.8739 H       1  LIG1        0.0227
     16 C          -4.9527    2.5221   -0.6072 C.3     1  LIG1        0.1185
     17 C          -5.4065    1.3366   -0.0004 C.2     1  LIG1        0.0127
     18 C          -6.6685    1.3341    0.5966 C.2     1  LIG1       -0.0372
     19 C          -7.4278    2.5051    0.5680 C.2     1  LIG1        0.0425
     20 C          -6.8874    3.6406   -0.0629 C.2     1  LIG1        0.0850
     21 N          -5.6719    3.6606   -0.6440 N.2     1  LIG1       -0.2679
     22 H          -7.0563    0.4269    1.0813 H       1  LIG1        0.0634
     23 C          -3.7847    2.5738   -1.1762 C.3     1  LIG1       -0.0182
     24 H          -3.2824    3.4705   -0.8787 H       1  LIG1        0.0294
     25 H          -3.9053    2.5685   -2.2394 H       1  LIG1        0.0294
     26 H          -3.2052    1.7249   -0.8788 H       1  LIG1        0.2922
     27 C          -8.6085    2.5539    1.1098 C.1     1  LIG1       -0.1176
     28 C          -9.6994    2.5990    1.6105 C.2     1  LIG1       -0.0555
     29 H         -10.6712    2.6391    2.0565 H       1  LIG1        0.0622
     30 C          -8.1250    5.2880    1.0588 C.ar    1  LIG1        0.1306
     31 C          -8.8410    6.4957    0.9488 C.ar    1  LIG1       -0.0081
     32 C          -7.5560    4.7541   -0.1155 C.ar    1  LIG1        0.0463
     33 C          -8.9849    7.1452   -0.2751 C.ar    1  LIG1        0.0272
     34 H          -9.2884    6.9250    1.8425 H       1  LIG1        0.0661
     35 C          -7.6993    5.4021   -1.3377 C.ar    1  LIG1       -0.0069
     36 C          -8.4140    6.6012   -1.4264 C.ar    1  LIG1        0.1254
     37 H          -7.2513    4.9703   -2.2290 H       1  LIG1        0.0662
     38 O          -8.0248    4.7288    2.2282 O.3     1  LIG1       -0.4879
     39 C          -9.3148    4.2856    2.6574 C.3     1  LIG1        0.1235
     40 H          -9.2319    3.8254    3.6198 H       1  LIG1        0.0731
     41 H          -9.9776    5.1235    2.7187 H       1  LIG1        0.0731
     42 H          -9.7004    3.5766    1.9550 H       1  LIG1        0.0622
     43 O          -8.5448    7.2024   -2.5716 O.3     1  LIG1       -0.5061
     44 H          -9.4613    7.1582   -2.8539 H       1  LIG1        0.2922
     45 C          -9.6243    9.0264   -1.5226 C.ar    1  LIG1       -0.0537
     46 C         -10.3628   10.2253   -1.5424 C.ar    1  LIG1       -0.0577
     47 C          -9.6525    8.2587   -0.3403 C.ar    1  LIG1       -0.0108
     48 C         -11.0980   10.6431   -0.4353 C.ar    1  LIG1       -0.0199
     49 H         -10.3548   10.8330   -2.4445 H       1  LIG1        0.0619
     50 C         -10.3863    8.6753    0.7651 C.ar    1  LIG1       -0.0121
     51 C         -11.1138    9.8694    0.7258 C.ar    1  LIG1        0.1207
     52 H         -10.3920    8.0659    1.6652 H       1  LIG1        0.0660
     53 H         -11.7686   11.7556   -0.4883 H       1  LIG1        0.0654
     54 H          -8.9580    8.6889   -2.5866 H       1  LIG1        0.0624
     55 O         -11.7978   10.2539    1.7623 O.3     1  LIG1       -0.4951
     56 C         -11.3884   11.5701    2.1428 C.3     1  LIG1        0.0788
     57 H         -11.9517   11.8863    2.9959 H       1  LIG1        0.0660
     58 H         -10.3464   11.5632    2.3861 H       1  LIG1        0.0660
     59 H         -11.5607   12.2458    1.3313 H       1  LIG1        0.0660
@<TRIPOS>BOND
     1    44    43    1
     2    54    45    1
     3    43    36    1
     4    49    46    1
     5    25    23    1
     6    37    35    1
     7    46    45   ar
     8    46    48   ar
     9    45    47   ar
    10    36    35   ar
    11    36    33   ar
    12    35    32   ar
    13    23    24    1
    14    23    16    1
    15    26    11    1
    16    15    12    1
    17    21    16    1
    18    21    20    2
    19    16    17    1
    20    53    48    1
    21    48    51   ar
    22    47    33    1
    23    47    50   ar
    24    33    31   ar
    25    32    20    1
    26    32    30   ar
    27    20    19    1
    28     7     3    1
    29    13    12    1
    30    12    14    1
    31    17     5    1
    32    17    18    2
    33    11     4    1
    34     5     4   ar
    35     5     6   ar
    36     4     3   ar
    37     6     1   ar
    38     1     2   ar
    39     1    10    1
    40     3     2   ar
    41     2     8    1
    42    10     9    3
    43    19    18    1
    44    19    27    2
    45    18    22    1
    46    51    50   ar
    47    51    55    1
    48    50    52    1
    49    31    30   ar
    50    31    34    1
    51    30    38    1
    52    27    28    2
    53    59    56    1
    54    28    42    1
    55    28    29    1
    56    55    56    1
    57    56    58    1
    58    56    57    1
    59    38    39    1
    60    39    41    1
    61    39    40    1
