@<TRIPOS>MOLECULE
mol_data/noopt/geoms/mol2/6ea13da(200)6dd(20)12di(100).out
 44 47 0 0 0
SMALL
GASTEIGER

@<TRIPOS>ATOM
      1 C          -4.5775   -2.0270    0.0001 C.ar    1  LIG1        0.1139
      2 C          -3.1706   -2.0270    0.0001 C.ar    1  LIG1       -0.0278
      3 C          -2.5039   -0.8004    0.0001 C.ar    1  LIG1       -0.0571
      4 C          -3.2580    0.3743   -0.0001 C.ar    1  LIG1       -0.0341
      5 C          -4.6612    0.2715   -0.0003 C.ar    1  LIG1        0.0897
      6 N          -5.3207   -0.9034   -0.0001 N.ar    1  LIG1       -0.2369
      7 H          -1.4054   -0.7607   -0.0009 H       1  LIG1        0.0619
      8 H          -2.5135   -3.1487    0.0004 H       1  LIG1        0.0645
      9 C          -5.2431   -3.1437    0.0002 C.1     1  LIG1       -0.0498
     10 C          -5.8581   -4.1755    0.0003 C.1     1  LIG1       -0.1124
     11 H          -6.4059   -5.0946    0.0004 H       1  LIG1        0.1232
     12 H          -2.6846    1.5410   -0.0003 H       1  LIG1        0.0639
     13 C          -5.4065    1.3366   -0.0004 C.ar    1  LIG1        0.0830
     14 C          -6.7160    1.4967   -0.3285 C.ar    1  LIG1        0.0790
     15 C          -7.0349    2.8815   -0.1517 C.ar    1  LIG1       -0.0182
     16 C          -5.9068    3.5064    0.2783 C.ar    1  LIG1        0.0510
     17 N          -4.9073    2.5644    0.3718 N.ar    1  LIG1       -0.3519
     18 H          -3.9736    2.7423    0.6626 H       1  LIG1        0.1660
     19 N          -8.2404   -0.2614   -1.0840 N.1     1  LIG1       -0.1908
     20 C          -7.5260    0.5625   -0.7299 C.1     1  LIG1        0.1013
     21 H          -8.1892    3.4414   -0.3620 H       1  LIG1        0.0652
     22 C          -6.6875    5.7213    0.3340 C.ar    1  LIG1        0.1500
     23 C          -5.6947    4.7542    0.5753 C.ar    1  LIG1        0.0354
     24 C          -4.4852    5.1662    1.1379 C.ar    1  LIG1       -0.0303
     25 C          -4.3096    6.5182    1.4376 C.ar    1  LIG1        0.0814
     26 C          -5.3617    7.4099    1.1592 C.ar    1  LIG1        0.1260
     27 N          -6.5350    7.0296    0.6169 N.ar    1  LIG1       -0.2313
     28 H          -3.6857    4.4394    1.3399 H       1  LIG1        0.0638
     29 N          -8.8376    5.0912   -0.6487 N.1     1  LIG1       -0.1893
     30 C          -7.8299    5.3865   -0.1882 C.1     1  LIG1        0.1198
     31 N          -2.2251    7.3345    2.4248 N.1     1  LIG1       -0.1908
     32 C          -3.2020    6.9519    1.9622 C.1     1  LIG1        0.1014
     33 C          -5.2459    8.6781    1.4206 C.ar    1  LIG1        0.1717
     34 C          -5.3658    9.4649    2.5473 C.ar    1  LIG1        0.1018
     35 C          -5.1032   10.8270    2.1320 C.ar    1  LIG1        0.0054
     36 C          -4.8400   10.7822    0.7783 C.ar    1  LIG1        0.0968
     37 O          -4.9219    9.4680    0.3166 O.2     1  LIG1       -0.4597
     38 H          -4.5425   11.6562   -0.1369 H       1  LIG1        0.1032
     39 N          -5.9127    8.7493    4.8221 N.1     1  LIG1       -0.1907
     40 C          -5.6564    9.0847    3.7561 C.1     1  LIG1        0.1033
     41 C          -5.1189   11.8717    2.9060 C.3     1  LIG1       -0.0355
     42 H          -5.9922   11.8449    3.5237 H       1  LIG1        0.0279
     43 H          -5.1323   12.7588    2.3077 H       1  LIG1        0.0279
     44 H          -4.2451   11.8712    3.5236 H       1  LIG1        0.0279
@<TRIPOS>BOND
     1    19    20    3
     2    20    14    1
     3    29    30    3
     4    21    15    1
     5    14    15   ar
     6    14    13   ar
     7    30    22    1
     8    15    16   ar
     9    38    36    1
    10     7     3    1
    11    13     5    1
    12    13    17   ar
    13    12     4    1
    14     5     6   ar
    15     5     4   ar
    16     6     1   ar
    17     4     3   ar
    18     2     1   ar
    19     2     3   ar
    20     2     8    1
    21     1     9    1
    22     9    10    3
    23    10    11    1
    24    16    17   ar
    25    16    23    1
    26    37    36   ar
    27    37    33   ar
    28    22    23   ar
    29    22    27   ar
    30    17    18    1
    31    23    24   ar
    32    27    26   ar
    33    36    35   ar
    34    24    28    1
    35    24    25   ar
    36    26    33    1
    37    26    25   ar
    38    33    34   ar
    39    25    32    1
    40    32    31    3
    41    35    34   ar
    42    35    41    1
    43    43    41    1
    44    34    40    1
    45    41    44    1
    46    41    42    1
    47    40    39    3
