@<TRIPOS>MOLECULE
mol_data/noopt/geoms/mol2/6ea13ee12lf-4ef-6lh-13dh6ll-13il-.out
 108 113 0 0 0
SMALL
GASTEIGER

@<TRIPOS>ATOM
      1 C          -4.5775   -2.0270    0.0001 C.ar    1  LIG1        0.1139
      2 C          -3.1706   -2.0270    0.0001 C.ar    1  LIG1       -0.0278
      3 C          -2.5039   -0.8004    0.0001 C.ar    1  LIG1       -0.0571
      4 C          -3.2580    0.3743   -0.0001 C.ar    1  LIG1       -0.0343
      5 C          -4.6612    0.2715   -0.0003 C.ar    1  LIG1        0.0873
      6 N          -5.3207   -0.9034   -0.0001 N.ar    1  LIG1       -0.2371
      7 H          -1.4054   -0.7607   -0.0009 H       1  LIG1        0.0619
      8 H          -2.5135   -3.1487    0.0004 H       1  LIG1        0.0645
      9 C          -5.2431   -3.1437    0.0002 C.1     1  LIG1       -0.0498
     10 C          -5.8581   -4.1755    0.0003 C.1     1  LIG1       -0.1124
     11 H          -6.4059   -5.0946    0.0004 H       1  LIG1        0.1232
     12 H          -2.6846    1.5410   -0.0003 H       1  LIG1        0.0639
     13 C          -5.4065    1.3366   -0.0004 C.2     1  LIG1        0.0704
     14 C          -5.0646    2.6523   -0.0008 C.2     1  LIG1        0.0609
     15 C          -6.2797    3.4100    0.0004 C.2     1  LIG1        0.0449
     16 C          -7.3108    2.5240   -0.0003 C.3     1  LIG1        0.1614
     17 N          -6.7806    1.2535   -0.0003 N.pl3   1  LIG1       -0.3226
     18 H          -7.3066    0.4100   -0.0008 H       1  LIG1        0.1475
     19 C          -3.8559    3.1308   -0.0007 C.1     1  LIG1       -0.0668
     20 C          -2.7390    3.5729   -0.0006 C.1     1  LIG1       -0.1138
     21 H          -1.7441    3.9667   -0.0005 H       1  LIG1        0.1232
     22 C          -6.3821    4.7060    0.0014 C.1     1  LIG1       -0.1201
     23 C          -6.4767    5.9034    0.0024 C.2     1  LIG1       -0.0558
     24 H          -6.5610    6.9701    0.0032 H       1  LIG1        0.0622
     25 C          -8.5952    2.7244    0.0002 C.ar    1  LIG1        0.1871
     26 C          -9.4177    3.8319    0.0006 C.ar    1  LIG1        0.2640
     27 C         -10.7788    3.3378    0.0010 C.ar    1  LIG1        0.2109
     28 C         -10.6978    1.9605    0.0008 C.ar    1  LIG1        0.1818
     29 O          -9.3617    1.5582    0.0002 O.2     1  LIG1       -0.4492
     30 O          -9.0667    5.0837    0.0006 O.3     1  LIG1       -0.2802
     31 C          -7.6399    5.1793    0.0006 C.3     2  LIG2       -0.0531
     32 H          -7.3514    6.2097    0.0004 H       1  LIG1        0.0622
     33 H          -7.2502    4.7000    0.8743 H       1  LIG1        0.0265
     34 H          -7.2503    4.6998   -0.8730 H       1  LIG1        0.0265
     35 O         -11.8515    4.0723    0.0015 O.3     1  LIG1       -0.5007
     36 H         -12.6272    3.5066    0.0016 H       1  LIG1        0.2924
     37 C         -12.9363    1.2587    0.0233 C.ar    1  LIG1        0.0362
     38 C         -13.8228    0.1644    0.0242 C.ar    1  LIG1       -0.0343
     39 C         -11.5539    0.9823    0.0011 C.ar    1  LIG1        0.0399
     40 C         -13.3558   -1.1479    0.0032 C.ar    1  LIG1        0.0299
     41 H         -14.8935    0.3551    0.0413 H       1  LIG1        0.0637
     42 C         -11.0872   -0.3276   -0.0198 C.ar    1  LIG1       -0.0076
     43 C         -11.9837   -1.4013   -0.0190 C.ar    1  LIG1        0.1254
     44 H         -10.0165   -0.5148   -0.0367 H       1  LIG1        0.0662
     45 C         -13.4319    2.4603    0.0432 C.1     1  LIG1       -0.0689
     46 C         -13.8898    3.5706    0.0616 C.1     1  LIG1       -0.1139
     47 H         -14.2978    4.5597    0.0779 H       1  LIG1        0.1232
     48 O         -11.5416   -2.6237   -0.0385 O.3     1  LIG1       -0.5061
     49 H         -10.5816   -2.6171   -0.0433 H       1  LIG1        0.2922
     50 C         -13.7445   -3.4645   -0.0157 C.ar    1  LIG1        0.2232
     51 C         -14.2024   -2.1344    0.0046 C.ar    1  LIG1        0.0489
     52 C         -15.5791   -1.9035    0.0263 C.ar    1  LIG1       -0.0260
     53 C         -16.4443   -2.9990    0.0269 C.ar    1  LIG1        0.0532
     54 C         -15.8904   -4.2921    0.0054 C.ar    1  LIG1        0.1128
     55 N         -14.5649   -4.5331   -0.0155 N.ar    1  LIG1       -0.2090
     56 H         -15.9742   -0.8778    0.0415 H       1  LIG1        0.0644
     57 O         -12.4721   -3.7302   -0.0363 O.3     1  LIG1       -0.4792
     58 C         -12.2804   -5.1473   -0.0439 C.3     1  LIG1        0.0804
     59 H         -11.2331   -5.3655   -0.0610 H       1  LIG1        0.0660
     60 H         -12.7188   -5.5713    0.8354 H       1  LIG1        0.0660
     61 H         -12.7461   -5.5656   -0.9117 H       1  LIG1        0.0660
     62 N         -17.7340   -2.8367    0.0465 N.pl3   1  LIG1       -0.3563
     63 H         -17.9698   -1.9841   -0.4199 H       1  LIG1        0.1424
     64 H         -18.1736   -3.6043   -0.4199 H       1  LIG1        0.1424
     65 C         -16.6548   -5.3436    0.0051 C.ar    1  LIG1        0.0867
     66 C         -18.0102   -5.4487    0.0046 C.ar    1  LIG1        0.0997
     67 C         -18.3310   -6.8443    0.0056 C.ar    1  LIG1        0.0686
     68 C         -17.1575   -7.5307    0.0050 C.ar    1  LIG1        0.0744
     69 N         -16.1289   -6.6158    0.0051 N.ar    1  LIG1       -0.3503
     70 H         -15.1601   -6.8385    0.0047 H       1  LIG1        0.1660
     71 N         -19.6022   -3.5909    0.0049 N.1     1  LIG1       -0.1907
     72 C         -18.8561   -4.4616    0.0047 C.1     1  LIG1        0.1032
     73 N         -19.5230   -7.3630    0.0064 N.pl3   1  LIG1       -0.3553
     74 H         -20.1547   -6.7474   -0.4647 H       1  LIG1        0.1424
     75 H         -19.5032   -8.2448   -0.4648 H       1  LIG1        0.1424
     76 C         -15.6090   -9.2970   -0.0155 C.ar    1  LIG1        0.2247
     77 C         -16.9289   -8.8104    0.0053 C.ar    1  LIG1        0.0653
     78 C         -17.9784   -9.7308    0.0265 C.ar    1  LIG1        0.0015
     79 C         -17.6771  -11.0938    0.0260 C.ar    1  LIG1        0.2071
     80 C         -16.3251  -11.4826    0.0041 C.ar    1  LIG1        0.1377
     81 N         -15.3002  -10.6083   -0.0163 N.ar    1  LIG1       -0.2070
     82 H         -19.0228   -9.3881    0.0421 H       1  LIG1        0.0665
     83 O         -14.5984   -8.4794   -0.0356 O.3     1  LIG1       -0.4792
     84 C         -13.3795   -9.2272   -0.0430 C.3     1  LIG1        0.0804
     85 H         -12.5481   -8.5539   -0.0597 H       1  LIG1        0.0660
     86 H         -13.3286   -9.8350    0.8361 H       1  LIG1        0.0660
     87 H         -13.3498   -9.8522   -0.9110 H       1  LIG1        0.0660
     88 O         -18.6185  -11.9902    0.0450 O.3     1  LIG1       -0.2856
     89 C         -19.8936  -11.3431    0.0520 C.3     3  LIG3       -0.0681
     90 H         -20.6681  -12.0813    0.0675 H       2  LIG2        0.0227
     91 H         -19.9744  -10.7232    0.9204 H       2  LIG2        0.0227
     92 H         -19.9927  -10.7407   -0.8267 H       2  LIG2        0.0227
     93 C         -15.9941  -12.7398    0.0028 C.ar    1  LIG1        0.0754
     94 C         -16.7699  -13.8560    0.0016 C.ar    1  LIG1        0.0181
     95 C         -15.8918  -14.9872    0.0016 C.ar    1  LIG1        0.1408
     96 C         -14.6180  -14.5124    0.0010 C.ar    1  LIG1        0.0447
     97 N         -14.6760  -13.1369    0.0023 N.ar    1  LIG1       -0.3561
     98 H         -13.8909  -12.5274    0.0021 H       1  LIG1        0.1655
     99 H         -13.4821  -15.1446    0.0007 H       1  LIG1        0.0844
    100 C         -18.0699  -13.8870    0.0019 C.3     1  LIG1       -0.0342
    101 H         -18.4055  -14.7688    0.5065 H       1  LIG1        0.0279
    102 H         -18.4268  -13.8955   -1.0068 H       1  LIG1        0.0279
    103 H         -18.4471  -13.0220    0.5064 H       1  LIG1        0.0279
    104 O         -16.2439  -16.2386    0.0016 O.3     1  LIG1       -0.4933
    105 C         -17.6708  -16.3329    0.0015 C.3     1  LIG1        0.0789
    106 H         -17.9602  -17.3631    0.0014 H       1  LIG1        0.0660
    107 H         -18.0600  -15.8533    0.8753 H       1  LIG1        0.0660
    108 H         -18.0600  -15.8530   -0.8720 H       1  LIG1        0.0660
@<TRIPOS>BOND
     1   102   100    1
     2    61    58    1
     3    87    84    1
     4    34    31    1
     5   108   105    1
     6    92    89    1
     7    75    73    1
     8    74    73    1
     9    64    62    1
    10    63    62    1
    11    59    58    1
    12    85    84    1
    13    58    57    1
    14    58    60    1
    15    49    48    1
    16    84    83    1
    17    84    86    1
    18    48    43    1
    19    44    42    1
    20    57    50    1
    21    83    76    1
    22    42    43   ar
    23    42    39   ar
    24    43    40   ar
    25    81    76   ar
    26    81    80   ar
    27    50    55   ar
    28    50    51   ar
    29    76    77   ar
    30    55    54   ar
    31     7     3    1
    32    14    19    1
    33    14    13    2
    34    14    15    1
    35    18    17    1
    36    19    20    3
    37    20    21    1
    38    13     5    1
    39    13    17    1
    40    12     4    1
    41     5     6   ar
    42     5     4   ar
    43    17    16    1
    44    16    25    1
    45    16    15    1
    46     6     1   ar
    47     4     3   ar
    48     1     2   ar
    49     1     9    1
    50     3     2   ar
    51     2     8    1
    52     9    10    3
    53    25    29   ar
    54    25    26   ar
    55    29    28   ar
    56    10    11    1
    57    15    22    2
    58    32    23    1
    59    31    33    1
    60    26    30    1
    61    26    27   ar
    62    99    96    1
    63    28    27   ar
    64    28    39    1
    65    96    95   ar
    66    96    97   ar
    67    27    35    1
    68    39    37   ar
    69   106   105    1
    70    22    23    2
    71    35    36    1
    72   105   104    1
    73   105   107    1
    74    94    95   ar
    75    94   100    1
    76    94    93   ar
    77    95   104    1
    78   100   103    1
    79   100   101    1
    80    98    97    1
    81    97    93   ar
    82    23    24    1
    83    93    80    1
    84    40    51    1
    85    40    38   ar
    86    80    79   ar
    87    51    52   ar
    88    66    72    1
    89    66    65   ar
    90    66    67   ar
    91    70    69    1
    92    72    71    3
    93    68    69   ar
    94    68    77    1
    95    68    67   ar
    96    65    69   ar
    97    65    54    1
    98    77    78   ar
    99    54    53   ar
   100    67    73    1
   101    37    38   ar
   102    37    45    1
   103    38    41    1
   104    79    78   ar
   105    79    88    1
   106    52    53   ar
   107    52    56    1
   108    78    82    1
   109    53    62    1
   110    45    46    3
   111    89    90    1
   112    89    91    1
   113    46    47    1
