@<TRIPOS>MOLECULE
mol_data/noopt/geoms/mol2/6ea13ae13de4fl-.out
 49 52 0 0 0
SMALL
GASTEIGER

@<TRIPOS>ATOM
      1 C          -4.5775   -2.0270    0.0001 C.ar    1  LIG1        0.1139
      2 C          -3.1706   -2.0270    0.0001 C.ar    1  LIG1       -0.0278
      3 C          -2.5039   -0.8004    0.0001 C.ar    1  LIG1       -0.0571
      4 C          -3.2580    0.3743   -0.0001 C.ar    1  LIG1       -0.0342
      5 C          -4.6612    0.2715   -0.0003 C.ar    1  LIG1        0.0885
      6 N          -5.3207   -0.9034   -0.0001 N.ar    1  LIG1       -0.2370
      7 H          -1.4054   -0.7607   -0.0009 H       1  LIG1        0.0619
      8 H          -2.5135   -3.1487    0.0004 H       1  LIG1        0.0645
      9 C          -5.2431   -3.1437    0.0002 C.1     1  LIG1       -0.0498
     10 C          -5.8581   -4.1755    0.0003 C.1     1  LIG1       -0.1124
     11 H          -6.4059   -5.0946    0.0004 H       1  LIG1        0.1232
     12 H          -2.6846    1.5410   -0.0003 H       1  LIG1        0.0639
     13 C          -5.4065    1.3366   -0.0004 C.ar    1  LIG1        0.0666
     14 C          -5.0646    2.6523   -0.0008 C.ar    1  LIG1       -0.0188
     15 C          -6.2797    3.4100    0.0004 C.ar    1  LIG1        0.0520
     16 C          -7.3108    2.5240   -0.0003 C.ar    1  LIG1        0.0802
     17 N          -6.7806    1.2535   -0.0003 N.ar    1  LIG1       -0.3508
     18 H          -7.3066    0.4100   -0.0008 H       1  LIG1        0.1660
     19 H          -3.8559    3.1308   -0.0007 H       1  LIG1        0.0652
     20 C          -6.3821    4.7060    0.0014 C.1     1  LIG1       -0.0675
     21 C          -6.4767    5.9034    0.0024 C.1     1  LIG1       -0.1138
     22 H          -6.5610    6.9701    0.0032 H       1  LIG1        0.1232
     23 C          -8.5953    2.7244    0.0002 C.ar    1  LIG1        0.0833
     24 C          -9.3072    3.8824    0.0168 C.ar    1  LIG1        0.0944
     25 C         -10.6954    3.5311    0.0096 C.ar    1  LIG1        0.0680
     26 C         -10.7707    2.1739   -0.0129 C.ar    1  LIG1        0.0674
     27 N          -9.4872    1.6761   -0.0182 N.ar    1  LIG1       -0.3509
     28 H          -9.2433    0.7126   -0.0336 H       1  LIG1        0.1660
     29 N          -8.3806    6.1464    0.0550 N.1     1  LIG1       -0.1908
     30 C          -8.8148    5.0854    0.0371 C.1     1  LIG1        0.1026
     31 C         -11.7009    4.3550    0.0217 C.1     1  LIG1       -0.0662
     32 C         -12.6300    5.1163    0.0329 C.1     1  LIG1       -0.1138
     33 H         -13.4576    5.7944    0.0429 H       1  LIG1        0.1232
     34 C         -13.1045    1.9337   -0.0126 C.ar    1  LIG1        0.1262
     35 C         -14.1917    1.0387   -0.0274 C.ar    1  LIG1       -0.0161
     36 C         -11.8051    1.3866   -0.0270 C.ar    1  LIG1        0.0444
     37 C         -13.9962   -0.3403   -0.0559 C.ar    1  LIG1       -0.0165
     38 H         -15.2028    1.4395   -0.0164 H       1  LIG1        0.0655
     39 C         -11.6094    0.0101   -0.0555 C.ar    1  LIG1       -0.0073
     40 C         -12.7024   -0.8627   -0.0702 C.ar    1  LIG1        0.1209
     41 H         -10.5976   -0.3873   -0.0661 H       1  LIG1        0.0662
     42 H         -15.0230   -1.1376   -0.0690 H       1  LIG1        0.0655
     43 O         -13.3501    3.2100    0.0137 O.3     1  LIG1       -0.5061
     44 H         -14.2992    3.3536    0.0202 H       1  LIG1        0.2922
     45 O         -12.5133   -2.1486   -0.0966 O.3     1  LIG1       -0.4951
     46 C         -13.7775   -2.8168   -0.1064 C.3     1  LIG1        0.0788
     47 H         -13.6215   -3.8751   -0.1283 H       1  LIG1        0.0660
     48 H         -14.3260   -2.5554    0.7744 H       1  LIG1        0.0660
     49 H         -14.3312   -2.5199   -0.9725 H       1  LIG1        0.0660
@<TRIPOS>BOND
     1    49    46    1
     2    47    46    1
     3    46    45    1
     4    46    48    1
     5    45    40    1
     6    40    37   ar
     7    40    39   ar
     8    42    37    1
     9    41    39    1
    10    37    35   ar
    11    39    36   ar
    12    28    27    1
    13    35    38    1
    14    35    34   ar
    15    36    26    1
    16    36    34   ar
    17    27    26   ar
    18    27    23   ar
    19    26    25   ar
    20    34    43    1
    21     7     3    1
    22    14    19    1
    23    14    13   ar
    24    14    15   ar
    25    18    17    1
    26    13     5    1
    27    13    17   ar
    28     5     4   ar
    29     5     6   ar
    30    12     4    1
    31    17    16   ar
    32    16    23    1
    33    16    15   ar
    34     4     3   ar
    35     6     1   ar
    36     1     2   ar
    37     1     9    1
    38     2     3   ar
    39     2     8    1
    40     9    10    3
    41    23    24   ar
    42    10    11    1
    43    15    20    1
    44    20    21    3
    45    21    22    1
    46    25    24   ar
    47    25    31    1
    48    43    44    1
    49    24    30    1
    50    31    32    3
    51    32    33    1
    52    30    29    3
