@<TRIPOS>MOLECULE
mol_data/noopt/geoms/mol2/6ea13eh13aa-4ea-.out
 45 48 0 0 0
SMALL
GASTEIGER

@<TRIPOS>ATOM
      1 C          -4.5775   -2.0270    0.0001 C.ar    1  LIG1        0.1139
      2 C          -3.1706   -2.0270    0.0001 C.ar    1  LIG1       -0.0278
      3 C          -2.5039   -0.8004    0.0001 C.ar    1  LIG1       -0.0571
      4 C          -3.2580    0.3743   -0.0001 C.ar    1  LIG1       -0.0341
      5 C          -4.6612    0.2715   -0.0003 C.ar    1  LIG1        0.0897
      6 N          -5.3207   -0.9034   -0.0001 N.ar    1  LIG1       -0.2369
      7 H          -1.4054   -0.7607   -0.0009 H       1  LIG1        0.0619
      8 H          -2.5135   -3.1487    0.0004 H       1  LIG1        0.0645
      9 C          -5.2431   -3.1437    0.0002 C.1     1  LIG1       -0.0498
     10 C          -5.8581   -4.1755    0.0003 C.1     1  LIG1       -0.1124
     11 H          -6.4059   -5.0946    0.0004 H       1  LIG1        0.1232
     12 H          -2.6846    1.5410   -0.0003 H       1  LIG1        0.0639
     13 C          -5.4065    1.3366   -0.0004 C.ar    1  LIG1        0.0829
     14 C          -5.0646    2.6523   -0.0008 C.ar    1  LIG1        0.0727
     15 C          -6.2797    3.4100    0.0004 C.ar    1  LIG1        0.0679
     16 C          -7.3108    2.5240   -0.0003 C.ar    1  LIG1        0.0855
     17 N          -6.7806    1.2535   -0.0003 N.ar    1  LIG1       -0.3494
     18 H          -7.3066    0.4100   -0.0008 H       1  LIG1        0.1661
     19 C          -3.8559    3.1308   -0.0007 C.1     1  LIG1       -0.0656
     20 C          -2.7390    3.5729   -0.0006 C.1     1  LIG1       -0.1138
     21 H          -1.7441    3.9667   -0.0005 H       1  LIG1        0.1232
     22 N          -6.3821    4.7060    0.0014 N.pl3   1  LIG1       -0.3553
     23 H          -5.5944    5.1029   -0.4697 H       1  LIG1        0.1424
     24 H          -7.2223    4.9744   -0.4698 H       1  LIG1        0.1424
     25 C          -8.5953    2.7244    0.0002 C.ar    1  LIG1        0.0652
     26 C          -9.3072    3.8825    0.0002 C.ar    1  LIG1       -0.0343
     27 C         -10.6954    3.5311    0.0020 C.ar    1  LIG1       -0.0357
     28 C         -10.7707    2.1738    0.0013 C.ar    1  LIG1        0.0481
     29 N          -9.4873    1.6759    0.0007 N.ar    1  LIG1       -0.3529
     30 H          -9.2434    0.7123   -0.0000 H       1  LIG1        0.1659
     31 H          -8.8148    5.0857    0.0001 H       1  LIG1        0.0639
     32 H         -11.7009    4.3551    0.0035 H       1  LIG1        0.0639
     33 C         -13.1043    1.9335    0.0247 C.ar    1  LIG1        0.0338
     34 C         -14.1916    1.0384    0.0262 C.ar    1  LIG1       -0.0457
     35 C         -11.8051    1.3864    0.0021 C.ar    1  LIG1        0.0137
     36 C         -13.9963   -0.3407    0.0056 C.ar    1  LIG1       -0.0606
     37 H         -15.2026    1.4393    0.0437 H       1  LIG1        0.0630
     38 C         -11.6095    0.0097   -0.0185 C.ar    1  LIG1       -0.0515
     39 C         -12.7025   -0.8632   -0.0170 C.ar    1  LIG1       -0.0611
     40 H         -10.5979   -0.3877   -0.0356 H       1  LIG1        0.0624
     41 H         -15.0230   -1.1381    0.0076 H       1  LIG1        0.0618
     42 C         -13.3498    3.2100    0.0443 C.1     1  LIG1       -0.0690
     43 C         -13.5766    4.3894    0.0624 C.1     1  LIG1       -0.1139
     44 H         -13.7787    5.4400    0.0786 H       1  LIG1        0.1232
     45 H         -12.5136   -2.1492   -0.0361 H       1  LIG1        0.0618
@<TRIPOS>BOND
     1    24    22    1
     2    23    22    1
     3    45    39    1
     4    40    38    1
     5    38    39   ar
     6    38    35   ar
     7    39    36   ar
     8     7     3    1
     9    14    19    1
    10    14    13   ar
    11    14    15   ar
    12    18    17    1
    13    19    20    3
    14    20    21    1
    15    13     5    1
    16    13    17   ar
    17    12     4    1
    18     5     4   ar
    19     5     6   ar
    20    17    16   ar
    21    16    25    1
    22    16    15   ar
    23     4     3   ar
    24     6     1   ar
    25    30    29    1
    26     2     1   ar
    27     2     3   ar
    28     2     8    1
    29     1     9    1
    30    31    26    1
    31    26    25   ar
    32    26    27   ar
    33     9    10    3
    34    25    29   ar
    35    10    11    1
    36    15    22    1
    37    29    28   ar
    38    28    27   ar
    39    28    35    1
    40    27    32    1
    41    35    33   ar
    42    36    41    1
    43    36    34   ar
    44    33    34   ar
    45    33    42    1
    46    34    37    1
    47    42    43    3
    48    43    44    1
