@<TRIPOS>MOLECULE
mol_data/noopt/geoms/mol2/6ea6ea.out
 24 25 0 0 0
SMALL
GASTEIGER

@<TRIPOS>ATOM
      1 C          -4.5775   -2.0270    0.0001 C.ar    1  LIG1        0.1138
      2 C          -3.1706   -2.0270    0.0001 C.ar    1  LIG1       -0.0278
      3 C          -2.5039   -0.8004    0.0001 C.ar    1  LIG1       -0.0571
      4 C          -3.2580    0.3743   -0.0001 C.ar    1  LIG1       -0.0355
      5 C          -4.6612    0.2715   -0.0003 C.ar    1  LIG1        0.0750
      6 N          -5.3207   -0.9034   -0.0001 N.ar    1  LIG1       -0.2383
      7 H          -1.4054   -0.7607   -0.0009 H       1  LIG1        0.0619
      8 H          -2.5135   -3.1487    0.0004 H       1  LIG1        0.0645
      9 C          -5.2431   -3.1437    0.0002 C.1     1  LIG1       -0.0498
     10 C          -5.8581   -4.1755    0.0003 C.1     1  LIG1       -0.1124
     11 H          -6.4059   -5.0946    0.0004 H       1  LIG1        0.1232
     12 H          -2.6846    1.5410   -0.0003 H       1  LIG1        0.0639
     13 C          -6.8088    1.2233   -0.0003 C.ar    1  LIG1        0.1222
     14 C          -5.4065    1.3366   -0.0004 C.ar    1  LIG1        0.0342
     15 C          -4.8408    2.6129   -0.0003 C.ar    1  LIG1       -0.0485
     16 C          -5.6871    3.7231   -0.0003 C.ar    1  LIG1       -0.0429
     17 C          -7.0774    3.5076   -0.0004 C.ar    1  LIG1        0.0290
     18 N          -7.6401    2.2834   -0.0003 N.ar    1  LIG1       -0.2460
     19 H          -3.7491    2.7410   -0.0014 H       1  LIG1        0.0625
     20 H          -7.9061    4.5092   -0.0003 H       1  LIG1        0.0830
     21 C          -7.3823    0.0566   -0.0003 C.1     1  LIG1       -0.0491
     22 C          -7.9122   -1.0214   -0.0003 C.1     1  LIG1       -0.1124
     23 H          -8.3842   -1.9816   -0.0003 H       1  LIG1        0.1232
     24 H          -5.2095    4.9322   -0.0004 H       1  LIG1        0.0633
@<TRIPOS>BOND
     1    19    15    1
     2     7     3    1
     3    14     5    1
     4    14    13   ar
     5    14    15   ar
     6    17    18   ar
     7    17    20    1
     8    17    16   ar
     9    24    16    1
    10     5     6   ar
    11     5     4   ar
    12    12     4    1
    13    13    21    1
    14    13    18   ar
    15    15    16   ar
    16    21    22    3
    17    22    23    1
    18     6     1   ar
    19     4     3   ar
    20     1     2   ar
    21     1     9    1
    22     3     2   ar
    23     2     8    1
    24     9    10    3
    25    10    11    1
