@<TRIPOS>MOLECULE
mol_data/noopt/geoms/mol2/6ea6ea-6ea.out
 35 37 0 0 0
SMALL
GASTEIGER

@<TRIPOS>ATOM
      1 C          -4.5775   -2.0270    0.0001 C.ar    1  LIG1        0.1138
      2 C          -3.1706   -2.0270    0.0001 C.ar    1  LIG1       -0.0278
      3 C          -2.5039   -0.8004    0.0001 C.ar    1  LIG1       -0.0571
      4 C          -3.2580    0.3743   -0.0001 C.ar    1  LIG1       -0.0355
      5 C          -4.6612    0.2715   -0.0003 C.ar    1  LIG1        0.0750
      6 N          -5.3207   -0.9034   -0.0001 N.ar    1  LIG1       -0.2383
      7 H          -1.4054   -0.7607   -0.0009 H       1  LIG1        0.0619
      8 H          -2.5135   -3.1487    0.0004 H       1  LIG1        0.0645
      9 C          -5.2431   -3.1437    0.0002 C.1     1  LIG1       -0.0498
     10 C          -5.8581   -4.1755    0.0003 C.1     1  LIG1       -0.1124
     11 H          -6.4059   -5.0946    0.0004 H       1  LIG1        0.1232
     12 H          -2.6846    1.5410   -0.0003 H       1  LIG1        0.0639
     13 C          -4.8196    2.6153   -0.0003 C.ar    1  LIG1        0.1230
     14 C          -5.4065    1.3366   -0.0004 C.ar    1  LIG1        0.0342
     15 C          -6.7994    1.2424   -0.0003 C.ar    1  LIG1       -0.0479
     16 C          -7.5524    2.4178   -0.0003 C.ar    1  LIG1       -0.0349
     17 C          -6.8736    3.6502   -0.0004 C.ar    1  LIG1        0.0751
     18 N          -5.5307    3.7594   -0.0003 N.ar    1  LIG1       -0.2377
     19 H          -7.2937    0.2606   -0.0014 H       1  LIG1        0.0626
     20 C          -3.5271    2.7543   -0.0003 C.1     1  LIG1       -0.0491
     21 C          -2.3328    2.8828   -0.0002 C.1     1  LIG1       -0.1124
     22 H          -1.2689    2.9973   -0.0002 H       1  LIG1        0.1232
     23 H          -8.8520    2.3834   -0.0004 H       1  LIG1        0.0639
     24 C          -8.9376    4.7719   -0.0001 C.ar    1  LIG1        0.1222
     25 C          -7.5307    4.7719   -0.0003 C.ar    1  LIG1        0.0342
     26 C          -6.8640    5.9985   -0.0001 C.ar    1  LIG1       -0.0485
     27 C          -7.6181    7.1732    0.0002 C.ar    1  LIG1       -0.0429
     28 C          -9.0213    7.0704    0.0002 C.ar    1  LIG1        0.0290
     29 N          -9.6808    5.8955    0.0002 N.ar    1  LIG1       -0.2460
     30 H          -5.7655    6.0382   -0.0012 H       1  LIG1        0.0625
     31 H          -9.7666    8.1355    0.0005 H       1  LIG1        0.0830
     32 C          -9.6032    3.6552   -0.0002 C.1     1  LIG1       -0.0491
     33 C         -10.2182    2.6234   -0.0002 C.1     1  LIG1       -0.1124
     34 H         -10.7661    1.7043   -0.0003 H       1  LIG1        0.1232
     35 H          -7.0447    8.3399    0.0002 H       1  LIG1        0.0633
@<TRIPOS>BOND
     1    19    15    1
     2    30    26    1
     3     7     3    1
     4    14    15   ar
     5    14     5    1
     6    14    13   ar
     7    23    16    1
     8    17    16   ar
     9    17    25    1
    10    17    18   ar
    11    34    33    1
    12    15    16   ar
    13     5     6   ar
    14     5     4   ar
    15    12     4    1
    16    25    24   ar
    17    25    26   ar
    18    13    18   ar
    19    13    20    1
    20    20    21    3
    21    21    22    1
    22    33    32    3
    23    32    24    1
    24     6     1   ar
    25     4     3   ar
    26    24    29   ar
    27    26    27   ar
    28     1     2   ar
    29     1     9    1
    30     3     2   ar
    31     2     8    1
    32    29    28   ar
    33    28    27   ar
    34    28    31    1
    35    27    35    1
    36     9    10    3
    37    10    11    1
