@<TRIPOS>MOLECULE
mol_data/noopt/geoms/mol2/6ea6di(270)4fd(270)4hf(350).out
 51 54 0 0 0
SMALL
GASTEIGER

@<TRIPOS>ATOM
      1 C          -4.5775   -2.0270    0.0001 C.ar    1  LIG1        0.1138
      2 C          -3.1706   -2.0270    0.0001 C.ar    1  LIG1       -0.0278
      3 C          -2.5039   -0.8004    0.0001 C.ar    1  LIG1       -0.0571
      4 C          -3.2580    0.3743   -0.0001 C.ar    1  LIG1       -0.0355
      5 C          -4.6612    0.2715   -0.0003 C.ar    1  LIG1        0.0751
      6 N          -5.3207   -0.9034   -0.0001 N.ar    1  LIG1       -0.2383
      7 H          -1.4054   -0.7607   -0.0009 H       1  LIG1        0.0619
      8 H          -2.5135   -3.1487    0.0004 H       1  LIG1        0.0645
      9 C          -5.2431   -3.1437    0.0002 C.1     1  LIG1       -0.0498
     10 C          -5.8581   -4.1755    0.0003 C.1     1  LIG1       -0.1124
     11 H          -6.4059   -5.0946    0.0004 H       1  LIG1        0.1232
     12 H          -2.6846    1.5410   -0.0003 H       1  LIG1        0.0639
     13 C          -5.8141    1.9195    1.2135 C.ar    1  LIG1        0.1499
     14 C          -5.4065    1.3366   -0.0004 C.ar    1  LIG1        0.0365
     15 C          -5.8199    1.9277   -1.1957 C.ar    1  LIG1       -0.0449
     16 C          -6.6195    3.0705   -1.1389 C.ar    1  LIG1       -0.0237
     17 C          -6.9753    3.5790    0.1237 C.ar    1  LIG1        0.0789
     18 N          -6.5853    3.0217    1.2867 N.ar    1  LIG1       -0.2353
     19 H          -5.5221    1.5001   -2.1636 H       1  LIG1        0.0628
     20 N          -5.1376    0.9526    3.3567 N.1     1  LIG1       -0.1893
     21 C          -5.4547    1.4057    2.3523 C.1     1  LIG1        0.1198
     22 C          -7.0305    3.6579   -2.2237 C.3     1  LIG1       -0.0377
     23 H          -8.1004    3.6629   -2.2432 H       1  LIG1        0.0278
     24 H          -6.6608    3.1295   -3.0775 H       1  LIG1        0.0278
     25 H          -6.6687    4.6647   -2.2432 H       1  LIG1        0.0278
     26 C          -8.1752    5.2955   -0.9336 C.ar    1  LIG1        0.1267
     27 C          -8.9755    6.4423   -0.7669 C.ar    1  LIG1       -0.0105
     28 C          -7.7181    4.6408    0.2284 C.ar    1  LIG1        0.0433
     29 C          -9.3077    6.9175    0.4998 C.ar    1  LIG1        0.0048
     30 H          -9.3387    6.9629   -1.6502 H       1  LIG1        0.0661
     31 C          -8.0494    5.1148    1.4931 C.ar    1  LIG1       -0.0311
     32 C          -8.8460    6.2554    1.6380 C.ar    1  LIG1        0.0604
     33 H          -7.6846    4.5923    2.3738 H       1  LIG1        0.0638
     34 O          -7.8990    4.9002   -2.1409 O.3     1  LIG1       -0.5061
     35 H          -7.0891    5.3209   -2.4384 H       1  LIG1        0.2922
     36 N          -9.4227    7.0807    3.8678 N.1     1  LIG1       -0.1908
     37 C          -9.1524    6.6939    2.8228 C.1     1  LIG1        0.0998
     38 C          -9.4728    9.2575    0.4696 C.ar    1  LIG1        0.0326
     39 C         -10.3176   10.3759    0.6072 C.ar    1  LIG1       -0.0370
     40 C         -10.0488    7.9791    0.6169 C.ar    1  LIG1        0.0075
     41 C         -11.6761   10.2302    0.8789 C.ar    1  LIG1       -0.0184
     42 H          -9.8937   11.3717    0.4975 H       1  LIG1        0.0637
     43 C         -11.4049    7.8331    0.8881 C.ar    1  LIG1       -0.0107
     44 C         -12.2278    8.9564    1.0209 C.ar    1  LIG1        0.1176
     45 H         -11.8253    6.8366    0.9975 H       1  LIG1        0.0661
     46 H         -12.4269   11.2846    0.9995 H       1  LIG1        0.0655
     47 N          -8.2135    9.4570    0.2158 N.pl3   1  LIG1       -0.3575
     48 H          -7.8538    8.6873   -0.3116 H       1  LIG1        0.1423
     49 H          -8.1093   10.3002   -0.3116 H       1  LIG1        0.1423
     50 O         -13.4948    8.8137    1.2746 O.3     1  LIG1       -0.5067
     51 H         -13.7058    7.8793    1.3372 H       1  LIG1        0.2921
@<TRIPOS>BOND
     1    24    22    1
     2    35    34    1
     3    23    22    1
     4    25    22    1
     5    22    16    1
     6    19    15    1
     7    34    26    1
     8    30    27    1
     9    15    16   ar
    10    15    14   ar
    11    16    17   ar
    12    26    27   ar
    13    26    28   ar
    14    27    29   ar
    15    49    47    1
    16    48    47    1
    17     7     3    1
    18    14     5    1
    19    14    13   ar
    20    12     4    1
    21     5     6   ar
    22     5     4   ar
    23     6     1   ar
    24     4     3   ar
    25     1     2   ar
    26     1     9    1
    27     3     2   ar
    28     2     8    1
    29     9    10    3
    30    10    11    1
    31    17    28    1
    32    17    18   ar
    33    47    38    1
    34    28    31   ar
    35    38    39   ar
    36    38    40   ar
    37    42    39    1
    38    29    40    1
    39    29    32   ar
    40    39    41   ar
    41    40    43   ar
    42    41    46    1
    43    41    44   ar
    44    43    45    1
    45    43    44   ar
    46    44    50    1
    47    13    18   ar
    48    13    21    1
    49    50    51    1
    50    31    32   ar
    51    31    33    1
    52    32    37    1
    53    21    20    3
    54    37    36    3
