@<TRIPOS>MOLECULE
mol_data/noopt/geoms/mol2/6ea6ea6ea.out
 35 37 0 0 0
SMALL
GASTEIGER

@<TRIPOS>ATOM
      1 C          -4.5775   -2.0270    0.0001 C.ar    1  LIG1        0.1138
      2 C          -3.1706   -2.0270    0.0001 C.ar    1  LIG1       -0.0278
      3 C          -2.5039   -0.8004    0.0001 C.ar    1  LIG1       -0.0571
      4 C          -3.2580    0.3743   -0.0001 C.ar    1  LIG1       -0.0355
      5 C          -4.6612    0.2715   -0.0003 C.ar    1  LIG1        0.0750
      6 N          -5.3207   -0.9034   -0.0001 N.ar    1  LIG1       -0.2383
      7 H          -1.4054   -0.7607   -0.0009 H       1  LIG1        0.0619
      8 H          -2.5135   -3.1487    0.0004 H       1  LIG1        0.0645
      9 C          -5.2431   -3.1437    0.0002 C.1     1  LIG1       -0.0498
     10 C          -5.8581   -4.1755    0.0003 C.1     1  LIG1       -0.1124
     11 H          -6.4059   -5.0946    0.0004 H       1  LIG1        0.1232
     12 H          -2.6846    1.5410   -0.0003 H       1  LIG1        0.0639
     13 C          -6.8088    1.2233   -0.0003 C.ar    1  LIG1        0.1230
     14 C          -5.4065    1.3366   -0.0004 C.ar    1  LIG1        0.0342
     15 C          -4.8408    2.6129   -0.0003 C.ar    1  LIG1       -0.0479
     16 C          -5.6871    3.7231   -0.0003 C.ar    1  LIG1       -0.0349
     17 C          -7.0774    3.5076   -0.0004 C.ar    1  LIG1        0.0751
     18 N          -7.6401    2.2834   -0.0003 N.ar    1  LIG1       -0.2377
     19 H          -3.7491    2.7410   -0.0014 H       1  LIG1        0.0626
     20 C          -7.3823    0.0566   -0.0003 C.1     1  LIG1       -0.0491
     21 C          -7.9122   -1.0214   -0.0003 C.1     1  LIG1       -0.1124
     22 H          -8.3842   -1.9816   -0.0003 H       1  LIG1        0.1232
     23 H          -5.2095    4.9322   -0.0004 H       1  LIG1        0.0639
     24 C          -9.2948    4.2833   -0.0001 C.ar    1  LIG1        0.1222
     25 C          -7.9061    4.5092   -0.0003 C.ar    1  LIG1        0.0342
     26 C          -7.4450    5.8270   -0.0001 C.ar    1  LIG1       -0.0485
     27 C          -8.3780    6.8653    0.0002 C.ar    1  LIG1       -0.0429
     28 C          -9.7465    6.5385    0.0002 C.ar    1  LIG1        0.0290
     29 N         -10.2087    5.2730    0.0002 N.ar    1  LIG1       -0.2460
     30 H          -6.3672    6.0425   -0.0012 H       1  LIG1        0.0625
     31 H         -10.6531    7.4701    0.0005 H       1  LIG1        0.0830
     32 C          -9.7724    3.0742   -0.0002 C.1     1  LIG1       -0.0491
     33 C         -10.2137    1.9570   -0.0002 C.1     1  LIG1       -0.1124
     34 H         -10.6069    0.9619   -0.0003 H       1  LIG1        0.1232
     35 H          -7.9994    8.1090    0.0002 H       1  LIG1        0.0633
@<TRIPOS>BOND
     1    19    15    1
     2    30    26    1
     3     7     3    1
     4    14     5    1
     5    14    13   ar
     6    14    15   ar
     7    17    18   ar
     8    17    25    1
     9    17    16   ar
    10    23    16    1
    11    34    33    1
    12     5     6   ar
    13     5     4   ar
    14    12     4    1
    15    13    20    1
    16    13    18   ar
    17    15    16   ar
    18    20    21    3
    19    21    22    1
    20    25    24   ar
    21    25    26   ar
    22    33    32    3
    23    32    24    1
    24     6     1   ar
    25     4     3   ar
    26    24    29   ar
    27    26    27   ar
    28     1     2   ar
    29     1     9    1
    30     3     2   ar
    31     2     8    1
    32    29    28   ar
    33    28    27   ar
    34    28    31    1
    35    27    35    1
    36     9    10    3
    37    10    11    1
