@<TRIPOS>MOLECULE
mol_data/noopt/geoms/mol2/6ea6ea6ea6ea-.out
 46 49 0 0 0
SMALL
GASTEIGER

@<TRIPOS>ATOM
      1 C          -4.5775   -2.0270    0.0001 C.ar    1  LIG1        0.1138
      2 C          -3.1706   -2.0270    0.0001 C.ar    1  LIG1       -0.0278
      3 C          -2.5039   -0.8004    0.0001 C.ar    1  LIG1       -0.0571
      4 C          -3.2580    0.3743   -0.0001 C.ar    1  LIG1       -0.0355
      5 C          -4.6612    0.2715   -0.0003 C.ar    1  LIG1        0.0750
      6 N          -5.3207   -0.9034   -0.0001 N.ar    1  LIG1       -0.2383
      7 H          -1.4054   -0.7607   -0.0009 H       1  LIG1        0.0619
      8 H          -2.5135   -3.1487    0.0004 H       1  LIG1        0.0645
      9 C          -5.2431   -3.1437    0.0002 C.1     1  LIG1       -0.0498
     10 C          -5.8581   -4.1755    0.0003 C.1     1  LIG1       -0.1124
     11 H          -6.4059   -5.0946    0.0004 H       1  LIG1        0.1232
     12 H          -2.6846    1.5410   -0.0003 H       1  LIG1        0.0639
     13 C          -6.8088    1.2233   -0.0003 C.ar    1  LIG1        0.1230
     14 C          -5.4065    1.3366   -0.0004 C.ar    1  LIG1        0.0342
     15 C          -4.8408    2.6129   -0.0003 C.ar    1  LIG1       -0.0479
     16 C          -5.6871    3.7231   -0.0003 C.ar    1  LIG1       -0.0349
     17 C          -7.0774    3.5076   -0.0004 C.ar    1  LIG1        0.0751
     18 N          -7.6401    2.2834   -0.0003 N.ar    1  LIG1       -0.2377
     19 H          -3.7491    2.7410   -0.0014 H       1  LIG1        0.0626
     20 C          -7.3823    0.0566   -0.0003 C.1     1  LIG1       -0.0491
     21 C          -7.9122   -1.0214   -0.0003 C.1     1  LIG1       -0.1124
     22 H          -8.3842   -1.9816   -0.0003 H       1  LIG1        0.1232
     23 H          -5.2095    4.9322   -0.0004 H       1  LIG1        0.0639
     24 C          -9.2948    4.2833   -0.0001 C.ar    1  LIG1        0.1230
     25 C          -7.9061    4.5092   -0.0003 C.ar    1  LIG1        0.0342
     26 C          -7.4450    5.8270   -0.0001 C.ar    1  LIG1       -0.0479
     27 C          -8.3780    6.8653    0.0002 C.ar    1  LIG1       -0.0349
     28 C          -9.7465    6.5385    0.0002 C.ar    1  LIG1        0.0751
     29 N         -10.2087    5.2730    0.0002 N.ar    1  LIG1       -0.2377
     30 H          -6.3672    6.0425   -0.0012 H       1  LIG1        0.0626
     31 C          -9.7724    3.0742   -0.0002 C.1     1  LIG1       -0.0491
     32 C         -10.2137    1.9570   -0.0002 C.1     1  LIG1       -0.1124
     33 H         -10.6069    0.9619   -0.0003 H       1  LIG1        0.1232
     34 H          -7.9994    8.1090    0.0002 H       1  LIG1        0.0639
     35 C         -10.2792    8.8264    0.0008 C.ar    1  LIG1        0.1222
     36 C         -10.6531    7.4702    0.0005 C.ar    1  LIG1        0.0342
     37 C         -12.0128    7.1535    0.0008 C.ar    1  LIG1       -0.0485
     38 C         -12.9448    8.1927    0.0012 C.ar    1  LIG1       -0.0429
     39 C         -12.4727    9.5181    0.0013 C.ar    1  LIG1        0.0290
     40 N         -11.1648    9.8416    0.0012 N.ar    1  LIG1       -0.2460
     41 H         -12.3431    6.1051   -0.0005 H       1  LIG1        0.0625
     42 H         -13.3014   10.5197    0.0018 H       1  LIG1        0.0830
     43 C          -9.0257    9.1713    0.0006 C.1     1  LIG1       -0.0491
     44 C          -7.8676    9.4899    0.0005 C.1     1  LIG1       -0.1124
     45 H          -6.8359    9.7737    0.0003 H       1  LIG1        0.1232
     46 H         -14.2220    7.9501    0.0013 H       1  LIG1        0.0633
@<TRIPOS>BOND
     1    19    15    1
     2    30    26    1
     3     7     3    1
     4    41    37    1
     5    14     5    1
     6    14    13   ar
     7    14    15   ar
     8    17    18   ar
     9    17    25    1
    10    17    16   ar
    11    23    16    1
    12    33    32    1
    13     5     6   ar
    14     5     4   ar
    15    12     4    1
    16    13    20    1
    17    13    18   ar
    18    15    16   ar
    19    20    21    3
    20    21    22    1
    21    25    24   ar
    22    25    26   ar
    23    32    31    3
    24    31    24    1
    25     6     1   ar
    26     4     3   ar
    27    24    29   ar
    28    26    27   ar
    29     1     2   ar
    30     1     9    1
    31     3     2   ar
    32     2     8    1
    33    29    28   ar
    34    28    27   ar
    35    28    36    1
    36    27    34    1
    37     9    10    3
    38    10    11    1
    39    45    44    1
    40    36    37   ar
    41    36    35   ar
    42    44    43    3
    43    43    35    1
    44    37    38   ar
    45    35    40   ar
    46    38    39   ar
    47    38    46    1
    48    40    39   ar
    49    39    42    1
