@<TRIPOS>MOLECULE
mol_data/noopt/geoms/mol2/6ed13ie-13dd-6ie-.out
 51 55 0 0 0
SMALL
GASTEIGER

@<TRIPOS>ATOM
      1 C          -4.5775   -2.0270    0.0001 C.ar    1  LIG1        0.1139
      2 C          -3.1706   -2.0270    0.0001 C.ar    1  LIG1       -0.0266
      3 C          -2.5039   -0.8004    0.0001 C.ar    1  LIG1       -0.0396
      4 C          -3.2580    0.3743   -0.0001 C.ar    1  LIG1        0.0790
      5 C          -4.6612    0.2715   -0.0003 C.ar    1  LIG1        0.1036
      6 N          -5.3207   -0.9034   -0.0001 N.ar    1  LIG1       -0.2359
      7 H          -1.4054   -0.7607   -0.0009 H       1  LIG1        0.0632
      8 H          -2.5135   -3.1487    0.0004 H       1  LIG1        0.0646
      9 C          -5.2431   -3.1437    0.0002 C.1     1  LIG1       -0.0498
     10 C          -5.8581   -4.1755    0.0003 C.1     1  LIG1       -0.1124
     11 H          -6.4059   -5.0946    0.0004 H       1  LIG1        0.1232
     12 N          -2.1789    2.5700   -0.0005 N.1     1  LIG1       -0.1908
     13 C          -2.6846    1.5410   -0.0003 C.1     1  LIG1        0.1013
     14 C          -5.4065    1.3366   -0.0004 C.2     1  LIG1        0.0590
     15 C          -5.0647    2.6523    0.0158 C.2     1  LIG1       -0.0141
     16 C          -6.2798    3.4100    0.0080 C.2     1  LIG1        0.0325
     17 C          -7.3107    2.5241   -0.0144 C.3     1  LIG1        0.1372
     18 N          -6.7805    1.2536   -0.0191 N.pl3   1  LIG1       -0.3247
     19 H          -7.3063    0.4102   -0.0343 H       1  LIG1        0.1474
     20 C          -3.8558    3.1307    0.0362 C.3     1  LIG1       -0.0370
     21 H          -3.8531    4.0714    0.5462 H       1  LIG1        0.0278
     22 H          -3.5095    3.2679   -0.9669 H       1  LIG1        0.0278
     23 H          -3.2101    2.4467    0.5461 H       1  LIG1        0.0278
     24 C          -6.3823    4.7059    0.0196 C.1     1  LIG1       -0.0967
     25 C          -6.4769    5.9033    0.0303 C.2     1  LIG1        0.0548
     26 H          -6.5613    6.9699    0.0399 H       1  LIG1        0.0888
     27 C          -8.5951    2.7246   -0.0290 C.ar    1  LIG1        0.0549
     28 C          -9.3068    3.8827   -0.0392 C.ar    1  LIG1        0.0238
     29 C         -10.6950    3.5314   -0.0527 C.ar    1  LIG1        0.0828
     30 C         -10.7705    2.1740   -0.0518 C.ar    1  LIG1        0.0664
     31 N          -9.4871    1.6761   -0.0369 N.ar    1  LIG1       -0.3545
     32 H          -9.2433    0.7124   -0.0330 H       1  LIG1        0.1657
     33 N          -8.3801    6.1469   -0.0327 N.pl3   1  LIG1       -0.2335
     34 C          -8.8144    5.0858   -0.0358 C.3     1  LIG1        0.1404
     35 N         -12.5871    5.0823   -0.0742 N.1     1  LIG1       -0.1908
     36 C         -11.7004    4.3554   -0.0641 C.1     1  LIG1        0.1016
     37 C         -11.6355   -0.0097   -0.0876 C.ar    1  LIG1        0.0474
     38 C         -11.8049    1.3867   -0.0614 C.ar    1  LIG1        0.0217
     39 C         -13.1028    1.9006   -0.0457 C.ar    1  LIG1       -0.0340
     40 C         -14.1781    1.0106   -0.0568 C.ar    1  LIG1        0.0434
     41 C         -13.9071   -0.3697   -0.0834 C.ar    1  LIG1        0.0433
     42 N         -12.6614   -0.8828   -0.0986 N.ar    1  LIG1       -0.2583
     43 H         -13.2745    2.9862   -0.0261 H       1  LIG1        0.0637
     44 H         -14.8747   -1.2378   -0.0946 H       1  LIG1        0.0842
     45 C         -10.4465   -0.5359   -0.1029 C.3     1  LIG1       -0.0217
     46 H          -9.7613    0.1162    0.3973 H       1  LIG1        0.0293
     47 H         -10.1311   -0.6754   -1.1159 H       1  LIG1        0.0293
     48 H         -10.4685   -1.4816    0.3972 H       1  LIG1        0.0293
     49 C         -15.4054    1.4392   -0.0432 C.1     1  LIG1       -0.0681
     50 C         -16.5394    1.8352   -0.0306 C.1     1  LIG1       -0.1139
     51 H         -17.5495    2.1879   -0.0194 H       1  LIG1        0.1232
@<TRIPOS>BOND
     1    47    45    1
     2    22    20    1
     3    45    37    1
     4    45    48    1
     5    45    46    1
     6    42    37   ar
     7    42    41   ar
     8    44    41    1
     9    37    38   ar
    10    41    40   ar
    11    35    36    3
    12    36    29    1
    13    38    30    1
    14    38    39   ar
    15    40    39   ar
    16    40    49    1
    17    29    30   ar
    18    29    28   ar
    19    30    31   ar
    20    39    43    1
    21    49    50    3
    22    28    34    1
    23    28    27   ar
    24    31    32    1
    25    31    27   ar
    26    34    33    1
    27    19    18    1
    28    33    25    1
    29    50    51    1
    30    27    17    1
    31    18    17    1
    32    18    14    1
    33    17    16    1
    34     7     3    1
    35    12    13    3
    36    14     5    1
    37    14    15    2
    38    13     4    1
    39     5     6   ar
    40     5     4   ar
    41     6     1   ar
    42     4     3   ar
    43     1     2   ar
    44     1     9    1
    45     3     2   ar
    46     2     8    1
    47     9    10    3
    48    10    11    1
    49    16    15    1
    50    16    24    2
    51    15    20    1
    52    24    25    2
    53    25    26    1
    54    20    23    1
    55    20    21    1
