@<TRIPOS>MOLECULE
mol_data/noopt/geoms/mol2/6ed12id12ai-6fh-.out
 47 49 0 0 0
SMALL
GASTEIGER

@<TRIPOS>ATOM
      1 C          -4.5775   -2.0270    0.0001 C.ar    1  LIG1        0.1140
      2 C          -3.1706   -2.0270    0.0001 C.ar    1  LIG1       -0.0266
      3 C          -2.5039   -0.8004    0.0001 C.ar    1  LIG1       -0.0395
      4 C          -3.2580    0.3743   -0.0001 C.ar    1  LIG1        0.0808
      5 C          -4.6612    0.2715   -0.0003 C.ar    1  LIG1        0.1249
      6 N          -5.3207   -0.9034   -0.0001 N.ar    1  LIG1       -0.2340
      7 H          -1.4054   -0.7607   -0.0009 H       1  LIG1        0.0632
      8 H          -2.5135   -3.1487    0.0004 H       1  LIG1        0.0646
      9 C          -5.2431   -3.1437    0.0002 C.1     1  LIG1       -0.0498
     10 C          -5.8581   -4.1755    0.0003 C.1     1  LIG1       -0.1124
     11 H          -6.4059   -5.0946    0.0004 H       1  LIG1        0.1232
     12 N          -2.1789    2.5700   -0.0005 N.1     1  LIG1       -0.1908
     13 C          -2.6846    1.5410   -0.0003 C.1     1  LIG1        0.1014
     14 C          -5.4065    1.3366   -0.0004 C.ar    1  LIG1        0.1593
     15 C          -5.1776    2.6970   -0.0005 C.ar    1  LIG1        0.0149
     16 C          -6.4770    3.3362   -0.0006 C.ar    1  LIG1        0.1009
     17 C          -7.4141    2.3236   -0.0007 C.ar    1  LIG1        0.1540
     18 O          -6.7786    1.0814   -0.0006 O.2     1  LIG1       -0.4516
     19 C          -4.0315    3.3112   -0.0004 C.3     1  LIG1       -0.0348
     20 H          -4.1299    4.2497    0.5041 H       1  LIG1        0.0279
     21 H          -3.7171    3.4798   -1.0092 H       1  LIG1        0.0279
     22 H          -3.3045    2.7096    0.5040 H       1  LIG1        0.0279
     23 N          -6.8788    5.7496   -0.0007 N.1     1  LIG1       -0.1907
     24 C          -6.6905    4.6186   -0.0007 C.1     1  LIG1        0.1032
     25 C          -8.7127    2.2633   -0.0007 C.2     1  LIG1        0.0296
     26 C          -9.7399    3.1841   -0.0007 C.2     1  LIG1       -0.0438
     27 C         -10.9748    2.4279   -0.0008 C.2     1  LIG1       -0.0023
     28 C         -10.6202    1.0946   -0.0009 C.2     1  LIG1        0.1941
     29 O          -9.2307    0.9674   -0.0009 O.2     1  LIG1       -0.2868
     30 H          -9.6461    4.4807   -0.0006 H       1  LIG1        0.0629
     31 C         -12.1729    2.9333   -0.0008 C.3     1  LIG1       -0.0360
     32 H         -12.8411    2.2670    0.5036 H       1  LIG1        0.0279
     33 H         -12.5015    3.0719   -1.0097 H       1  LIG1        0.0279
     34 H         -12.1619    3.8770    0.5035 H       1  LIG1        0.0279
     35 C         -10.5609   -1.2537   -0.0219 C.ar    1  LIG1        0.2235
     36 C         -11.2636   -0.0350   -0.0009 C.ar    1  LIG1        0.0849
     37 C         -12.6591   -0.0703    0.0201 C.ar    1  LIG1       -0.0236
     38 C         -13.3000   -1.3104    0.0192 C.ar    1  LIG1        0.0438
     39 C         -12.5101   -2.4745   -0.0029 C.ar    1  LIG1        0.0520
     40 N         -11.1630   -2.4588   -0.0231 N.ar    1  LIG1       -0.2190
     41 H         -13.2421    0.8614    0.0358 H       1  LIG1        0.0645
     42 H         -13.0605   -3.6523   -0.0046 H       1  LIG1        0.0849
     43 O          -9.2612   -1.2723   -0.0418 O.3     1  LIG1       -0.4919
     44 H          -8.9279   -0.3721   -0.0467 H       1  LIG1        0.2937
     45 N         -14.5970   -1.3966    0.0380 N.pl3   1  LIG1       -0.3568
     46 H         -14.9905   -0.6045   -0.4285 H       1  LIG1        0.1424
     47 H         -14.8822   -2.2338   -0.4285 H       1  LIG1        0.1424
@<TRIPOS>BOND
     1    33    31    1
     2    21    19    1
     3    47    45    1
     4    46    45    1
     5    44    43    1
     6    43    35    1
     7    40    35   ar
     8    40    39   ar
     9    35    36   ar
    10    42    39    1
    11    39    38   ar
    12    29    28    1
    13    36    28    1
    14    36    37   ar
    15     7     3    1
    16    28    27    2
    17    31    27    1
    18    31    34    1
    19    31    32    1
    20    27    26    1
    21    26    25    2
    22    26    30    1
    23    23    24    3
    24    25    17    1
    25    24    16    1
    26    17    18   ar
    27    17    16   ar
    28    18    14   ar
    29    16    15   ar
    30    15    14   ar
    31    15    19    1
    32    12    13    3
    33    14     5    1
    34    19    22    1
    35    19    20    1
    36     5     4   ar
    37     5     6   ar
    38    13     4    1
    39     4     3   ar
    40     6     1   ar
    41     3     2   ar
    42     1     2   ar
    43     1     9    1
    44     2     8    1
    45     9    10    3
    46    10    11    1
    47    38    37   ar
    48    38    45    1
    49    37    41    1
