@<TRIPOS>MOLECULE
mol_data/noopt/geoms/mol2/6ed13fe(70)4ia(290)6le(190).out
 53 56 0 0 0
SMALL
GASTEIGER

@<TRIPOS>ATOM
      1 C          -4.5775   -2.0270    0.0001 C.ar    1  LIG1        0.1139
      2 C          -3.1706   -2.0270    0.0001 C.ar    1  LIG1       -0.0266
      3 C          -2.5039   -0.8004    0.0001 C.ar    1  LIG1       -0.0396
      4 C          -3.2580    0.3743   -0.0001 C.ar    1  LIG1        0.0793
      5 C          -4.6612    0.2715   -0.0003 C.ar    1  LIG1        0.1094
      6 N          -5.3207   -0.9034   -0.0001 N.ar    1  LIG1       -0.2355
      7 H          -1.4054   -0.7607   -0.0009 H       1  LIG1        0.0632
      8 H          -2.5135   -3.1487    0.0004 H       1  LIG1        0.0646
      9 C          -5.2431   -3.1437    0.0002 C.1     1  LIG1       -0.0498
     10 C          -5.8581   -4.1755    0.0003 C.1     1  LIG1       -0.1124
     11 H          -6.4059   -5.0946    0.0004 H       1  LIG1        0.1232
     12 N          -2.1789    2.5700   -0.0005 N.1     1  LIG1       -0.1908
     13 C          -2.6846    1.5410   -0.0003 C.1     1  LIG1        0.1014
     14 C          -5.4065    1.3366   -0.0004 C.ar    1  LIG1        0.1099
     15 C          -5.6000    2.2777    0.9613 C.ar    1  LIG1        0.1596
     16 C          -6.5255    3.2380    0.4398 C.ar    1  LIG1        0.0919
     17 C          -6.8556    2.8425   -0.8182 C.ar    1  LIG1        0.0664
     18 N          -6.1730    1.6785   -1.0916 N.ar    1  LIG1       -0.3490
     19 H          -6.2250    1.1667   -1.9421 H       1  LIG1        0.1661
     20 O          -5.0463    2.2980    2.1373 O.3     1  LIG1       -0.5034
     21 H          -4.9429    3.2073    2.4271 H       1  LIG1        0.2923
     22 C          -6.9701    4.2946    1.0530 C.1     1  LIG1       -0.0639
     23 C          -7.3809    5.2709    1.6196 C.1     1  LIG1       -0.1137
     24 H          -7.7468    6.1405    2.1244 H       1  LIG1        0.1232
     25 C          -7.2144    3.5901   -3.0128 C.ar    1  LIG1       -0.0407
     26 C          -8.1175    4.1795   -3.9185 C.ar    1  LIG1       -0.0503
     27 C          -7.6549    3.3822   -1.6897 C.ar    1  LIG1        0.0026
     28 C          -9.4031    4.5459   -3.5266 C.ar    1  LIG1       -0.0125
     29 H          -7.7980    4.3491   -4.9443 H       1  LIG1        0.0626
     30 C          -8.9382    3.7478   -1.2979 C.ar    1  LIG1       -0.0518
     31 C          -9.8209    4.3317   -2.2125 C.ar    1  LIG1       -0.0532
     32 H          -9.2543    3.5773   -0.2720 H       1  LIG1        0.0624
     33 C          -6.0280    3.2694   -3.4375 C.3     1  LIG1       -0.0391
     34 H          -5.3155    3.9817   -3.0773 H       1  LIG1        0.0278
     35 H          -6.0206    3.2674   -4.5076 H       1  LIG1        0.0278
     36 H          -5.7716    2.2950   -3.0773 H       1  LIG1        0.0278
     37 H         -11.0193    4.6716   -1.8405 H       1  LIG1        0.0624
     38 C         -10.1029    6.4548   -4.7033 C.ar    1  LIG1        0.2224
     39 C         -10.2110    5.0878   -4.3890 C.ar    1  LIG1        0.0448
     40 C         -11.2006    4.3341   -5.0228 C.ar    1  LIG1       -0.0321
     41 C         -12.0415    4.9656   -5.9408 C.ar    1  LIG1        0.0436
     42 C         -11.8553    6.3380   -6.1885 C.ar    1  LIG1        0.0468
     43 N         -10.9056    7.0801   -5.5862 N.ar    1  LIG1       -0.2196
     44 H         -11.3159    3.2635   -4.8020 H       1  LIG1        0.0638
     45 H         -12.6130    6.9703   -7.0346 H       1  LIG1        0.0843
     46 O          -9.1974    7.1979   -4.1394 O.3     1  LIG1       -0.4792
     47 C          -8.0098    6.4287   -3.9324 C.3     1  LIG1        0.0804
     48 H          -7.2648    7.0407   -3.4685 H       1  LIG1        0.0660
     49 H          -8.2309    5.5946   -3.2997 H       1  LIG1        0.0660
     50 H          -7.6452    6.0752   -4.8742 H       1  LIG1        0.0660
     51 C         -12.9783    4.3078   -6.5571 C.1     1  LIG1       -0.0681
     52 C         -13.8438    3.7000   -7.1265 C.1     1  LIG1       -0.1139
     53 H         -14.6148    3.1586   -7.6338 H       1  LIG1        0.1232
@<TRIPOS>BOND
     1    53    52    1
     2    52    51    3
     3    45    42    1
     4    51    41    1
     5    42    41   ar
     6    42    43   ar
     7    41    40   ar
     8    43    38   ar
     9    40    44    1
    10    40    39   ar
    11    29    26    1
    12    50    47    1
    13    38    39   ar
    14    38    46    1
    15    35    33    1
    16    39    28    1
    17    46    47    1
    18    47    48    1
    19    47    49    1
    20    26    28   ar
    21    26    25   ar
    22    28    31   ar
    23    33    36    1
    24    33    34    1
    25    33    25    1
    26    25    27   ar
    27    31    37    1
    28    31    30   ar
    29    19    18    1
    30    27    30   ar
    31    27    17    1
    32    30    32    1
    33    18    17   ar
    34    18    14   ar
    35    17    16   ar
    36     7     3    1
    37    12    13    3
    38    14     5    1
    39    14    15   ar
    40     5     4   ar
    41     5     6   ar
    42    13     4    1
    43     4     3   ar
    44     6     1   ar
    45     2     1   ar
    46     2     3   ar
    47     2     8    1
    48     1     9    1
    49     9    10    3
    50    10    11    1
    51    16    15   ar
    52    16    22    1
    53    15    20    1
    54    22    23    3
    55    23    24    1
    56    20    21    1
