@<TRIPOS>MOLECULE
mol_data/noopt/geoms/mol2/6ed4af(350)13de(50)6ai(340).out
 48 51 0 0 0
SMALL
GASTEIGER

@<TRIPOS>ATOM
      1 C          -4.5775   -2.0270    0.0001 C.ar    1  LIG1        0.1139
      2 C          -3.1706   -2.0270    0.0001 C.ar    1  LIG1       -0.0266
      3 C          -2.5039   -0.8004    0.0001 C.ar    1  LIG1       -0.0396
      4 C          -3.2580    0.3743   -0.0001 C.ar    1  LIG1        0.0778
      5 C          -4.6612    0.2715   -0.0003 C.ar    1  LIG1        0.0898
      6 N          -5.3207   -0.9034   -0.0001 N.ar    1  LIG1       -0.2371
      7 H          -1.4054   -0.7607   -0.0009 H       1  LIG1        0.0632
      8 H          -2.5135   -3.1487    0.0004 H       1  LIG1        0.0646
      9 C          -5.2431   -3.1437    0.0002 C.1     1  LIG1       -0.0498
     10 C          -5.8581   -4.1755    0.0003 C.1     1  LIG1       -0.1124
     11 H          -6.4059   -5.0946    0.0004 H       1  LIG1        0.1232
     12 N          -2.1789    2.5700   -0.0005 N.1     1  LIG1       -0.1908
     13 C          -2.6846    1.5410   -0.0003 C.1     1  LIG1        0.1013
     14 C          -4.8227    2.6024   -0.2120 C.ar    1  LIG1       -0.0517
     15 C          -5.6726    3.7253   -0.2013 C.ar    1  LIG1       -0.0485
     16 C          -5.4065    1.3366   -0.0004 C.ar    1  LIG1        0.0051
     17 C          -7.0435    3.5959    0.0099 C.ar    1  LIG1        0.0410
     18 H          -5.2429    4.7115   -0.3623 H       1  LIG1        0.0625
     19 C          -6.7750    1.2068    0.2105 C.ar    1  LIG1       -0.0103
     20 C          -7.6028    2.3343    0.2171 C.ar    1  LIG1        0.1266
     21 H          -7.2012    0.2199    0.3714 H       1  LIG1        0.0661
     22 H          -3.5519    2.7864   -0.4144 H       1  LIG1        0.0624
     23 O          -8.8813    2.2069    0.4149 O.3     1  LIG1       -0.5061
     24 H          -9.1067    1.2750    0.4637 H       1  LIG1        0.2922
     25 C          -7.7988    4.6540    0.0133 C.ar    1  LIG1        0.0692
     26 C          -7.7424    5.7754    0.7796 C.ar    1  LIG1        0.0930
     27 C          -8.8170    6.6282    0.3693 C.ar    1  LIG1        0.0679
     28 C          -9.4818    5.9913   -0.6309 C.ar    1  LIG1        0.0652
     29 N          -8.8620    4.7820   -0.8517 N.ar    1  LIG1       -0.3520
     30 H          -9.1380    4.1086   -1.5287 H       1  LIG1        0.1660
     31 N          -6.1052    6.2425    2.5367 N.1     1  LIG1       -0.1908
     32 C          -6.8724    6.0236    1.7132 C.1     1  LIG1        0.1025
     33 C          -9.1064    7.7968    0.8599 C.1     1  LIG1       -0.0662
     34 C          -9.3738    8.8766    1.3132 C.1     1  LIG1       -0.1138
     35 H          -9.6120    9.8384    1.7171 H       1  LIG1        0.1232
     36 C         -11.6768    5.5572   -1.3465 C.ar    1  LIG1        0.0367
     37 C         -10.5206    6.3585   -1.3208 C.ar    1  LIG1        0.0179
     38 C         -10.5184    7.5492   -2.0497 C.ar    1  LIG1       -0.0468
     39 C         -11.6606    7.8962   -2.7733 C.ar    1  LIG1       -0.0317
     40 C         -12.7679    7.0289   -2.7369 C.ar    1  LIG1        0.0305
     41 N         -12.7872    5.8766   -2.0390 N.ar    1  LIG1       -0.2623
     42 H          -9.6330    8.2006   -2.0545 H       1  LIG1        0.0628
     43 H         -13.8541    7.3086   -3.3941 H       1  LIG1        0.0832
     44 H         -11.7270    4.4398   -0.6839 H       1  LIG1        0.0836
     45 C         -11.7083    8.9943   -3.4681 C.3     1  LIG1       -0.0383
     46 H         -12.6060    9.5268   -3.2322 H       1  LIG1        0.0278
     47 H         -11.6981    8.7570   -4.5114 H       1  LIG1        0.0278
     48 H         -10.8603    9.6027   -3.2323 H       1  LIG1        0.0278
@<TRIPOS>BOND
     1    47    45    1
     2    45    48    1
     3    45    46    1
     4    45    39    1
     5    43    40    1
     6    39    40   ar
     7    39    38   ar
     8    40    41   ar
     9    42    38    1
    10    38    37   ar
    11    41    36   ar
    12    30    29    1
    13    36    37   ar
    14    36    44    1
    15    37    28    1
    16    29    28   ar
    17    29    25   ar
    18    28    27   ar
    19    22    14    1
    20    18    15    1
    21    14    15   ar
    22    14    16   ar
    23    15    17   ar
    24     7     3    1
    25    12    13    3
    26    16     5    1
    27    16    19   ar
    28    13     4    1
    29     5     6   ar
    30     5     4   ar
    31     6     1   ar
    32     4     3   ar
    33     1     2   ar
    34     1     9    1
    35     2     3   ar
    36     2     8    1
    37     9    10    3
    38    10    11    1
    39    17    25    1
    40    17    20   ar
    41    25    26   ar
    42    19    20   ar
    43    19    21    1
    44    20    23    1
    45    27    26   ar
    46    27    33    1
    47    23    24    1
    48    26    32    1
    49    33    34    3
    50    34    35    1
    51    32    31    3
