@<TRIPOS>MOLECULE
mol_data/noopt/geoms/mol2/6ed6fl(310)4ll(40)6id(120).out
 59 62 0 0 0
SMALL
GASTEIGER

@<TRIPOS>ATOM
      1 C          -4.5775   -2.0270    0.0001 C.ar    1  LIG1        0.1139
      2 C          -3.1706   -2.0270    0.0001 C.ar    1  LIG1       -0.0266
      3 C          -2.5039   -0.8004    0.0001 C.ar    1  LIG1       -0.0396
      4 C          -3.2580    0.3743   -0.0001 C.ar    1  LIG1        0.0779
      5 C          -4.6612    0.2715   -0.0003 C.ar    1  LIG1        0.0949
      6 N          -5.3207   -0.9034   -0.0001 N.ar    1  LIG1       -0.2370
      7 H          -1.4054   -0.7607   -0.0009 H       1  LIG1        0.0632
      8 H          -2.5135   -3.1487    0.0004 H       1  LIG1        0.0646
      9 C          -5.2431   -3.1437    0.0002 C.1     1  LIG1       -0.0498
     10 C          -5.8581   -4.1755    0.0003 C.1     1  LIG1       -0.1124
     11 H          -6.4059   -5.0946    0.0004 H       1  LIG1        0.1232
     12 N          -2.1789    2.5700   -0.0005 N.1     1  LIG1       -0.1908
     13 C          -2.6846    1.5410   -0.0003 C.1     1  LIG1        0.1013
     14 C          -6.4538    1.4718    0.9292 C.ar    1  LIG1        0.2225
     15 C          -5.4065    1.3366   -0.0004 C.ar    1  LIG1        0.0665
     16 C          -5.1901    2.3684   -0.9156 C.ar    1  LIG1       -0.0035
     17 C          -6.0197    3.4902   -0.8721 C.ar    1  LIG1        0.1469
     18 C          -7.0409    3.5331    0.0948 C.ar    1  LIG1        0.1199
     19 N          -7.2636    2.5469    0.9854 N.ar    1  LIG1       -0.2087
     20 H          -4.3821    2.2979   -1.6575 H       1  LIG1        0.0663
     21 O          -6.6944    0.5381    1.8013 O.3     1  LIG1       -0.4919
     22 H          -5.8774    0.0822    2.0162 H       1  LIG1        0.2937
     23 O          -5.8592    4.4774   -1.7026 O.3     1  LIG1       -0.4929
     24 C          -4.4698    4.6235   -2.0076 C.3     1  LIG1        0.0789
     25 H          -4.3381    5.4360   -2.6913 H       1  LIG1        0.0660
     26 H          -3.9261    4.8230   -1.1078 H       1  LIG1        0.0660
     27 H          -4.1053    3.7209   -2.4518 H       1  LIG1        0.0660
     28 C          -7.5021    5.6465    1.0031 C.ar    1  LIG1        0.1302
     29 C          -8.4003    6.7298    1.0567 C.ar    1  LIG1       -0.0080
     30 C          -7.8388    4.5562    0.1750 C.ar    1  LIG1        0.0492
     31 C          -9.5819    6.7300    0.3188 C.ar    1  LIG1        0.0290
     32 H          -8.1601    7.5812    1.6896 H       1  LIG1        0.0661
     33 C          -9.0182    4.5560   -0.5620 C.ar    1  LIG1       -0.0065
     34 C          -9.8975    5.6418   -0.4957 C.ar    1  LIG1        0.1287
     35 H          -9.2555    3.7034   -1.1932 H       1  LIG1        0.0662
     36 O          -6.4154    5.7040    1.7143 O.3     1  LIG1       -0.4944
     37 C          -5.9451    4.3791    1.9754 C.3     1  LIG1        0.0788
     38 H          -5.0506    4.4269    2.5606 H       1  LIG1        0.0660
     39 H          -6.6935    3.8341    2.5119 H       1  LIG1        0.0660
     40 H          -5.7392    3.8847    1.0491 H       1  LIG1        0.0660
     41 O         -10.9987    5.6359   -1.1867 O.3     1  LIG1       -0.4945
     42 C         -11.4101    6.9817   -1.4405 C.3     1  LIG1        0.0788
     43 H         -12.3163    6.9764   -2.0094 H       1  LIG1        0.0660
     44 H         -11.5755    7.4854   -0.5110 H       1  LIG1        0.0660
     45 H         -10.6465    7.4904   -1.9909 H       1  LIG1        0.0660
     46 C         -10.3904    8.7270   -0.6176 C.ar    1  LIG1        0.0461
     47 C         -10.3883    7.7470    0.3919 C.ar    1  LIG1        0.0080
     48 C         -11.2684    7.8941    1.4656 C.ar    1  LIG1       -0.0333
     49 C         -12.1131    9.0050    1.4948 C.ar    1  LIG1        0.0704
     50 C         -12.0412    9.9312    0.4382 C.ar    1  LIG1        0.0452
     51 N         -11.1984    9.8048   -0.6054 N.ar    1  LIG1       -0.2583
     52 H         -11.2946    7.1493    2.2736 H       1  LIG1        0.0637
     53 H         -12.8073   10.9814    0.4204 H       1  LIG1        0.0843
     54 C          -9.5892    8.6339   -1.6375 C.3     1  LIG1       -0.0218
     55 H          -8.8756    9.4304   -1.6044 H       1  LIG1        0.0293
     56 H         -10.1554    8.6997   -2.5431 H       1  LIG1        0.0293
     57 H          -9.0774    7.6948   -1.6044 H       1  LIG1        0.0293
     58 N         -13.6884    9.3481    3.3351 N.1     1  LIG1       -0.1908
     59 C         -12.9501    9.1873    2.4726 C.1     1  LIG1        0.1007
@<TRIPOS>BOND
     1    25    24    1
     2    56    54    1
     3    27    24    1
     4    43    42    1
     5    24    23    1
     6    24    26    1
     7    45    42    1
     8    23    17    1
     9    20    16    1
    10    54    57    1
    11    54    55    1
    12    54    46    1
    13    42    41    1
    14    42    44    1
    15    35    33    1
    16    41    34    1
    17    16    17   ar
    18    16    15   ar
    19    17    18   ar
    20    46    51   ar
    21    46    47   ar
    22    51    50   ar
    23    33    34   ar
    24    33    30   ar
    25    34    31   ar
    26     7     3    1
    27    12    13    3
    28    15     5    1
    29    15    14   ar
    30    13     4    1
    31     5     6   ar
    32     5     4   ar
    33     6     1   ar
    34     4     3   ar
    35     1     2   ar
    36     1     9    1
    37     3     2   ar
    38     2     8    1
    39     9    10    3
    40    10    11    1
    41    18    30    1
    42    18    19   ar
    43    30    28   ar
    44    31    47    1
    45    31    29   ar
    46    47    48   ar
    47    53    50    1
    48    50    49   ar
    49    14    19   ar
    50    14    21    1
    51    28    29   ar
    52    28    36    1
    53    40    37    1
    54    29    32    1
    55    48    49   ar
    56    48    52    1
    57    49    59    1
    58    36    37    1
    59    21    22    1
    60    37    39    1
    61    37    38    1
    62    59    58    3
