@<TRIPOS>MOLECULE
mol_data/noopt/geoms/mol2/6ed6ed6ed6ed.out
 50 53 0 0 0
SMALL
GASTEIGER

@<TRIPOS>ATOM
      1 C          -4.5775   -2.0270    0.0001 C.ar    1  LIG1        0.1139
      2 C          -3.1706   -2.0270    0.0001 C.ar    1  LIG1       -0.0266
      3 C          -2.5039   -0.8004    0.0001 C.ar    1  LIG1       -0.0396
      4 C          -3.2580    0.3743   -0.0001 C.ar    1  LIG1        0.0778
      5 C          -4.6612    0.2715   -0.0003 C.ar    1  LIG1        0.0924
      6 N          -5.3207   -0.9034   -0.0001 N.ar    1  LIG1       -0.2370
      7 H          -1.4054   -0.7607   -0.0009 H       1  LIG1        0.0632
      8 H          -2.5135   -3.1487    0.0004 H       1  LIG1        0.0646
      9 C          -5.2431   -3.1437    0.0002 C.1     1  LIG1       -0.0498
     10 C          -5.8581   -4.1755    0.0003 C.1     1  LIG1       -0.1124
     11 H          -6.4059   -5.0946    0.0004 H       1  LIG1        0.1232
     12 N          -2.1789    2.5700   -0.0005 N.1     1  LIG1       -0.1908
     13 C          -2.6846    1.5410   -0.0003 C.1     1  LIG1        0.1013
     14 C          -6.8088    1.2233   -0.0003 C.ar    1  LIG1        0.1231
     15 C          -5.4065    1.3366   -0.0004 C.ar    1  LIG1        0.0367
     16 C          -4.8408    2.6129   -0.0003 C.ar    1  LIG1       -0.0304
     17 C          -5.6871    3.7231   -0.0003 C.ar    1  LIG1        0.0785
     18 C          -7.0774    3.5076   -0.0004 C.ar    1  LIG1        0.0924
     19 N          -7.6401    2.2834   -0.0003 N.ar    1  LIG1       -0.2364
     20 H          -3.7491    2.7410   -0.0014 H       1  LIG1        0.0638
     21 C          -7.3823    0.0566   -0.0003 C.1     1  LIG1       -0.0491
     22 C          -7.9122   -1.0214   -0.0003 C.1     1  LIG1       -0.1124
     23 H          -8.3842   -1.9816   -0.0003 H       1  LIG1        0.1232
     24 N          -4.7883    5.9986   -0.0004 N.1     1  LIG1       -0.1908
     25 C          -5.2095    4.9322   -0.0004 C.1     1  LIG1        0.1013
     26 C          -9.2948    4.2833   -0.0001 C.ar    1  LIG1        0.1231
     27 C          -7.9061    4.5092   -0.0003 C.ar    1  LIG1        0.0367
     28 C          -7.4450    5.8270   -0.0001 C.ar    1  LIG1       -0.0304
     29 C          -8.3780    6.8653    0.0002 C.ar    1  LIG1        0.0785
     30 C          -9.7465    6.5385    0.0002 C.ar    1  LIG1        0.0924
     31 N         -10.2087    5.2730    0.0002 N.ar    1  LIG1       -0.2364
     32 H          -6.3672    6.0425   -0.0012 H       1  LIG1        0.0638
     33 C          -9.7724    3.0742   -0.0002 C.1     1  LIG1       -0.0491
     34 C         -10.2137    1.9570   -0.0002 C.1     1  LIG1       -0.1124
     35 H         -10.6069    0.9619   -0.0003 H       1  LIG1        0.1232
     36 N          -7.6654    9.2059    0.0002 N.1     1  LIG1       -0.1908
     37 C          -7.9994    8.1090    0.0002 C.1     1  LIG1        0.1013
     38 C         -12.0191    7.1331    0.0008 C.ar    1  LIG1        0.1224
     39 C         -10.6531    7.4702    0.0005 C.ar    1  LIG1        0.0367
     40 C         -10.2997    8.8208    0.0008 C.ar    1  LIG1       -0.0310
     41 C         -11.3132    9.7806    0.0012 C.ar    1  LIG1        0.0705
     42 C         -12.6510    9.3446    0.0013 C.ar    1  LIG1        0.0464
     43 N         -13.0098    8.0460    0.0012 N.ar    1  LIG1       -0.2448
     44 H          -9.2427    9.1225   -0.0004 H       1  LIG1        0.0638
     45 H         -13.6297   10.2002    0.0018 H       1  LIG1        0.0843
     46 C         -12.3978    5.8895    0.0006 C.1     1  LIG1       -0.0491
     47 C         -12.7477    4.7404    0.0004 C.1     1  LIG1       -0.1124
     48 H         -13.0594    3.7168    0.0003 H       1  LIG1        0.1232
     49 N         -10.7915   12.1709    0.0015 N.1     1  LIG1       -0.1908
     50 C         -11.0360   11.0507    0.0014 C.1     1  LIG1        0.1007
@<TRIPOS>BOND
     1    20    16    1
     2    32    28    1
     3     7     3    1
     4    12    13    3
     5    44    40    1
     6    24    25    3
     7    15     5    1
     8    15    14   ar
     9    15    16   ar
    10    18    19   ar
    11    18    27    1
    12    18    17   ar
    13    25    17    1
    14    35    34    1
    15     5     6   ar
    16     5     4   ar
    17    13     4    1
    18    14    21    1
    19    14    19   ar
    20    16    17   ar
    21    21    22    3
    22    22    23    1
    23    27    26   ar
    24    27    28   ar
    25    34    33    3
    26    33    26    1
    27     6     1   ar
    28     4     3   ar
    29    26    31   ar
    30    28    29   ar
    31     1     2   ar
    32     1     9    1
    33     3     2   ar
    34     2     8    1
    35    31    30   ar
    36    30    29   ar
    37    30    39    1
    38    29    37    1
    39    37    36    3
    40     9    10    3
    41    48    47    1
    42    10    11    1
    43    47    46    3
    44    39    38   ar
    45    39    40   ar
    46    46    38    1
    47    38    43   ar
    48    40    41   ar
    49    43    42   ar
    50    41    42   ar
    51    41    50    1
    52    42    45    1
    53    50    49    3
