@<TRIPOS>MOLECULE
mol_data/noopt/geoms/mol2/6ed6lf4ee13ee-6ff-13el-13li-4ai.out
 107 112 0 0 0
SMALL
GASTEIGER

@<TRIPOS>ATOM
      1 C          -4.5775   -2.0270    0.0001 C.ar    1  LIG1        0.1139
      2 C          -3.1706   -2.0270    0.0001 C.ar    1  LIG1       -0.0266
      3 C          -2.5039   -0.8004    0.0001 C.ar    1  LIG1       -0.0396
      4 C          -3.2580    0.3743   -0.0001 C.ar    1  LIG1        0.0779
      5 C          -4.6612    0.2715   -0.0003 C.ar    1  LIG1        0.0949
      6 N          -5.3207   -0.9034   -0.0001 N.ar    1  LIG1       -0.2370
      7 H          -1.4054   -0.7607   -0.0009 H       1  LIG1        0.0632
      8 H          -2.5135   -3.1487    0.0004 H       1  LIG1        0.0646
      9 C          -5.2431   -3.1437    0.0002 C.1     1  LIG1       -0.0498
     10 C          -5.8581   -4.1755    0.0003 C.1     1  LIG1       -0.1124
     11 H          -6.4059   -5.0946    0.0004 H       1  LIG1        0.1232
     12 N          -2.1789    2.5700   -0.0005 N.1     1  LIG1       -0.1908
     13 C          -2.6846    1.5410   -0.0003 C.1     1  LIG1        0.1013
     14 C          -6.8088    1.2233   -0.0003 C.ar    1  LIG1        0.2247
     15 C          -5.4065    1.3366   -0.0004 C.ar    1  LIG1        0.0666
     16 C          -4.8408    2.6129   -0.0003 C.ar    1  LIG1       -0.0037
     17 C          -5.6871    3.7231   -0.0003 C.ar    1  LIG1        0.1436
     18 C          -7.0774    3.5076   -0.0004 C.ar    1  LIG1        0.1173
     19 N          -7.6401    2.2834   -0.0003 N.ar    1  LIG1       -0.2086
     20 H          -3.7491    2.7410   -0.0014 H       1  LIG1        0.0663
     21 O          -7.3823    0.0566   -0.0003 O.3     1  LIG1       -0.4792
     22 C          -8.8026    0.2229   -0.0004 C.3     1  LIG1        0.0804
     23 H          -9.2743   -0.7375   -0.0005 H       1  LIG1        0.0660
     24 H          -9.0983    0.7653    0.8734 H       1  LIG1        0.0660
     25 H          -9.0982    0.7655   -0.8739 H       1  LIG1        0.0660
     26 O          -5.2095    4.9322   -0.0004 O.3     1  LIG1       -0.5046
     27 H          -5.9335    5.5627   -0.0004 H       1  LIG1        0.2922
     28 C          -7.4120    5.8297    0.0005 C.ar    1  LIG1        0.0347
     29 C          -8.3504    6.8798    0.0022 C.ar    1  LIG1       -0.0354
     30 C          -7.9061    4.5092   -0.0003 C.ar    1  LIG1        0.0206
     31 C          -9.7206    6.6285    0.0023 C.ar    1  LIG1        0.0161
     32 H          -7.9907    7.9063    0.0030 H       1  LIG1        0.0637
     33 C          -9.2739    4.2578   -0.0001 C.ar    1  LIG1       -0.0352
     34 C         -10.1903    5.3146    0.0011 C.ar    1  LIG1        0.0345
     35 H          -9.6300    3.2308   -0.0006 H       1  LIG1        0.0637
     36 C          -6.1464    6.1268    0.0002 C.1     1  LIG1       -0.0690
     37 C          -4.9770    6.4013   -0.0002 C.1     1  LIG1       -0.1139
     38 H          -3.9353    6.6459   -0.0005 H       1  LIG1        0.1232
     39 C         -11.4678    5.0735    0.0014 C.1     1  LIG1       -0.0690
     40 C         -12.6481    4.8508    0.0017 C.1     1  LIG1       -0.1139
     41 H         -13.6996    4.6524    0.0020 H       1  LIG1        0.1232
     42 C         -10.5590    7.6221    0.0037 C.ar    1  LIG1        0.0649
     43 C         -10.3372    8.9632    0.0209 C.ar    1  LIG1        0.0659
     44 C         -11.6157    9.6082    0.0146 C.ar    1  LIG1        0.0660
     45 C         -12.5625    8.6329   -0.0079 C.ar    1  LIG1        0.0689
     46 N         -11.9199    7.4154   -0.0142 N.ar    1  LIG1       -0.3520
     47 H         -12.3675    6.5281   -0.0298 H       1  LIG1        0.1660
     48 C          -9.1767    9.5486    0.0410 C.1     1  LIG1       -0.0663
     49 C          -8.1044   10.0896    0.0595 C.1     1  LIG1       -0.1138
     50 H          -7.1491   10.5714    0.0761 H       1  LIG1        0.1232
     51 C         -11.8347   10.8895    0.0276 C.1     1  LIG1       -0.0663
     52 C         -12.0370   12.0735    0.0395 C.1     1  LIG1       -0.1138
     53 H         -12.2172   13.1282    0.0501 H       1  LIG1        0.1232
     54 C         -14.6474    7.5513   -0.0498 C.ar    1  LIG1        0.2225
     55 C         -13.8597    8.7167   -0.0214 C.ar    1  LIG1        0.0644
     56 C         -14.5027    9.9559   -0.0079 C.ar    1  LIG1       -0.0037
     57 C         -15.8982    9.9890   -0.0233 C.ar    1  LIG1        0.1451
     58 C         -16.5986    8.7691   -0.0518 C.ar    1  LIG1        0.1334
     59 N         -15.9944    7.5649   -0.0650 N.ar    1  LIG1       -0.2073
     60 H         -13.9206   10.8880    0.0133 H       1  LIG1        0.0663
     61 O         -14.0948    6.3746   -0.0632 O.3     1  LIG1       -0.4919
     62 H         -13.1395    6.4693   -0.0665 H       1  LIG1        0.2937
     63 O         -16.5438   11.1174   -0.0119 O.3     1  LIG1       -0.5045
     64 H         -17.4884   10.9460   -0.0091 H       1  LIG1        0.2922
     65 C         -17.8983    8.7482   -0.0670 C.ar    1  LIG1        0.0853
     66 C         -18.7968    9.7683   -0.0776 C.ar    1  LIG1        0.0600
     67 C         -20.1049    9.1860   -0.0916 C.ar    1  LIG1        0.0283
     68 C         -19.9484    7.8356   -0.0907 C.ar    1  LIG1        0.0763
     69 N         -18.5990    7.5632   -0.0752 N.ar    1  LIG1       -0.3502
     70 H         -18.1948    6.6551   -0.0712 H       1  LIG1        0.1660
     71 C         -18.5162   11.0377   -0.0740 C.1     1  LIG1       -0.0669
     72 C         -18.2570   12.2106   -0.0707 C.1     1  LIG1       -0.1138
     73 H         -18.0261   13.2553   -0.0677 H       1  LIG1        0.1232
     74 O         -21.2359    9.8270   -0.1035 O.3     1  LIG1       -0.2383
     75 C         -20.9864   11.2351   -0.1079 C.3     2  LIG2       -0.0681
     76 H         -21.9174   11.7623   -0.1179 H       2  LIG2        0.0227
     77 H         -20.4346   11.5023    0.7690 H       2  LIG2        0.0227
     78 H         -20.4204   11.4943   -0.9782 H       2  LIG2        0.0227
     79 C         -20.8337    6.8837   -0.1006 C.ar    1  LIG1        0.1115
     80 C         -22.1918    6.9423   -0.0911 C.ar    1  LIG1        0.2090
     81 C         -22.6782    5.5955   -0.1089 C.ar    1  LIG1        0.0222
     82 C         -21.5959    4.7732   -0.1302 C.ar    1  LIG1        0.0536
     83 N         -20.4646    5.5577   -0.1248 N.ar    1  LIG1       -0.3497
     84 H         -19.5297    5.2203   -0.1370 H       1  LIG1        0.1661
     85 O         -22.9129    8.0238   -0.0684 O.3     1  LIG1       -0.2853
     86 C         -22.0560    9.1687   -0.0601 C.3     1  LIG1        0.0718
     87 H         -22.6498   10.0586   -0.0416 H       1  LIG1        0.0555
     88 H         -21.4301    9.1395    0.8073 H       1  LIG1        0.0555
     89 H         -21.4469    9.1646   -0.9398 H       1  LIG1        0.0555
     90 C         -23.9242    5.2238   -0.1057 C.3     1  LIG1       -0.0340
     91 H         -24.0151    4.2850    0.3996 H       1  LIG1        0.0279
     92 H         -24.2683    5.1211   -1.1137 H       1  LIG1        0.0279
     93 H         -24.5145    5.9594    0.3995 H       1  LIG1        0.0279
     94 C         -22.7038    2.7055   -0.1624 C.ar    1  LIG1       -0.0526
     95 C         -22.5712    1.3036   -0.1840 C.ar    1  LIG1       -0.0609
     96 C         -21.5228    3.4755   -0.1516 C.ar    1  LIG1       -0.0011
     97 C         -21.3191    0.6932   -0.1951 C.ar    1  LIG1       -0.0588
     98 H         -23.4697    0.6906   -0.1925 H       1  LIG1        0.0618
     99 C         -20.2725    2.8666   -0.1626 C.ar    1  LIG1       -0.0497
    100 C         -20.1615    1.4725   -0.1845 C.ar    1  LIG1       -0.0498
    101 H         -19.3766    3.4822   -0.1538 H       1  LIG1        0.0627
    102 H         -21.2334   -0.6038   -0.2152 H       1  LIG1        0.0620
    103 H         -23.8990    3.2169   -0.1532 H       1  LIG1        0.0624
    104 C         -18.9898    0.9087   -0.1946 C.3     1  LIG1       -0.0397
    105 H         -18.2861    1.5397    0.3071 H       1  LIG1        0.0278
    106 H         -18.6754    0.7576   -1.2062 H       1  LIG1        0.0278
    107 H         -19.0437   -0.0349    0.3070 H       1  LIG1        0.0278
@<TRIPOS>BOND
     1   106   104    1
     2    92    90    1
     3    78    75    1
     4    89    86    1
     5    25    22    1
     6   102    97    1
     7    97   100   ar
     8    97    95   ar
     9   104   100    1
    10   104   107    1
    11   104   105    1
    12    98    95    1
    13   100    99   ar
    14    95    94   ar
    15    99   101    1
    16    99    96   ar
    17    94   103    1
    18    94    96   ar
    19    96    82    1
    20    84    83    1
    21    82    83   ar
    22    82    81   ar
    23    83    79   ar
    24    76    75    1
    25    81    90    1
    26    81    80   ar
    27    75    77    1
    28    90    93    1
    29    90    91    1
    30    74    86    1
    31    79    80   ar
    32    79    68    1
    33    67    68   ar
    34    67    66   ar
    35    80    85    1
    36    68    69   ar
    37    66    71    1
    38    66    65   ar
    39    69    70    1
    40    69    65   ar
    41    71    72    3
    42    72    73    1
    43    65    58    1
    44    62    61    1
    45    59    58   ar
    46    59    54   ar
    47    61    54    1
    48    86    87    1
    49    86    88    1
    50    58    57   ar
    51    54    55   ar
    52    47    46    1
    53    57    63    1
    54    57    56   ar
    55    55    56   ar
    56    55    45    1
    57    46    45   ar
    58    46    42   ar
    59    63    64    1
    60    56    60    1
    61    45    44   ar
    62    20    16    1
    63     7     3    1
    64    35    33    1
    65    23    22    1
    66    38    37    1
    67    12    13    3
    68    15     5    1
    69    15    14   ar
    70    15    16   ar
    71    27    26    1
    72    18    19   ar
    73    18    30    1
    74    18    17   ar
    75    26    17    1
    76    22    21    1
    77    22    24    1
    78     5     4   ar
    79     5     6   ar
    80    13     4    1
    81    14    21    1
    82    14    19   ar
    83    16    17   ar
    84    30    33   ar
    85    30    28   ar
    86    37    36    3
    87     4     3   ar
    88     6     1   ar
    89    33    34   ar
    90     1     2   ar
    91     1     9    1
    92     2     3   ar
    93     2     8    1
    94    36    28    1
    95     9    10    3
    96    10    11    1
    97    28    29   ar
    98    34    39    1
    99    34    31   ar
   100    39    40    3
   101    40    41    1
   102    29    31   ar
   103    29    32    1
   104    31    42    1
   105    42    43   ar
   106    44    43   ar
   107    44    51    1
   108    43    48    1
   109    51    52    3
   110    52    53    1
   111    48    49    3
   112    49    50    1
