@<TRIPOS>MOLECULE
mol_data/noopt/geoms/mol2/6ee.out
 15 15 0 0 0
SMALL
GASTEIGER

@<TRIPOS>ATOM
      1 C          -4.5775   -2.0270    0.0001 C.ar    1  LIG1        0.1132
      2 C          -3.1706   -2.0270    0.0001 C.ar    1  LIG1       -0.0267
      3 C          -2.5039   -0.8004    0.0001 C.ar    1  LIG1       -0.0422
      4 C          -3.2580    0.3743   -0.0001 C.ar    1  LIG1        0.0428
      5 C          -4.6612    0.2715   -0.0003 C.ar    1  LIG1        0.0443
      6 N          -5.3207   -0.9034   -0.0001 N.ar    1  LIG1       -0.2455
      7 H          -1.4054   -0.7607   -0.0009 H       1  LIG1        0.0631
      8 H          -2.5135   -3.1487    0.0004 H       1  LIG1        0.0646
      9 H          -5.4065    1.3366   -0.0004 H       1  LIG1        0.0842
     10 C          -5.2431   -3.1437    0.0002 C.1     1  LIG1       -0.0498
     11 C          -5.8581   -4.1755    0.0003 C.1     1  LIG1       -0.1124
     12 H          -6.4059   -5.0946    0.0004 H       1  LIG1        0.1232
     13 C          -2.6846    1.5410   -0.0003 C.1     1  LIG1       -0.0681
     14 C          -2.1548    2.6190   -0.0005 C.1     1  LIG1       -0.1139
     15 H          -1.6828    3.5793   -0.0006 H       1  LIG1        0.1232
@<TRIPOS>BOND
     1     7     3    1
     2    15    14    1
     3    14    13    3
     4     9     5    1
     5     5     4   ar
     6     5     6   ar
     7    13     4    1
     8     4     3   ar
     9     6     1   ar
    10     1     2   ar
    11     1    10    1
    12     2     3   ar
    13     2     8    1
    14    10    11    3
    15    11    12    1
