@<TRIPOS>MOLECULE
mol_data/noopt/geoms/mol2/6ee12fi(200)4al(310)6hl(250).out
 55 58 0 0 0
SMALL
GASTEIGER

@<TRIPOS>ATOM
      1 C          -4.5775   -2.0270    0.0001 C.ar    1  LIG1        0.1140
      2 C          -3.1706   -2.0270    0.0001 C.ar    1  LIG1       -0.0266
      3 C          -2.5039   -0.8004    0.0001 C.ar    1  LIG1       -0.0415
      4 C          -3.2580    0.3743   -0.0001 C.ar    1  LIG1        0.0538
      5 C          -4.6612    0.2715   -0.0003 C.ar    1  LIG1        0.1263
      6 N          -5.3207   -0.9034   -0.0001 N.ar    1  LIG1       -0.2340
      7 H          -1.4054   -0.7607   -0.0009 H       1  LIG1        0.0631
      8 H          -2.5135   -3.1487    0.0004 H       1  LIG1        0.0646
      9 C          -5.2431   -3.1437    0.0002 C.1     1  LIG1       -0.0498
     10 C          -5.8581   -4.1755    0.0003 C.1     1  LIG1       -0.1124
     11 H          -6.4059   -5.0946    0.0004 H       1  LIG1        0.1232
     12 C          -2.6846    1.5410   -0.0003 C.1     1  LIG1       -0.0674
     13 C          -2.1548    2.6190   -0.0005 C.1     1  LIG1       -0.1138
     14 H          -1.6828    3.5793   -0.0006 H       1  LIG1        0.1232
     15 C          -5.4065    1.3366   -0.0004 C.ar    1  LIG1        0.1964
     16 C          -6.7255    1.6139   -0.2943 C.ar    1  LIG1        0.1678
     17 C          -6.9079    3.0347   -0.0824 C.ar    1  LIG1        0.0375
     18 C          -5.6878    3.5316    0.3273 C.ar    1  LIG1        0.1424
     19 O          -4.7459    2.5038    0.3857 O.2     1  LIG1       -0.4492
     20 O          -7.6450    0.7827   -0.6865 O.3     1  LIG1       -0.5030
     21 H          -7.2648   -0.0935   -0.7832 H       1  LIG1        0.2923
     22 C          -8.0181    3.6899   -0.2527 C.3     1  LIG1       -0.0326
     23 H          -8.8236    3.1508    0.2007 H       1  LIG1        0.0280
     24 H          -8.2089    3.8024   -1.2996 H       1  LIG1        0.0280
     25 H          -7.9354    4.6556    0.2006 H       1  LIG1        0.0280
     26 C          -4.1610    5.2695   -0.0634 C.ar    1  LIG1       -0.0503
     27 C          -3.6991    6.5378    0.3384 C.ar    1  LIG1       -0.0498
     28 C          -5.2288    4.7012    0.6609 C.ar    1  LIG1        0.0212
     29 C          -4.2738    7.2124    1.4132 C.ar    1  LIG1        0.0272
     30 H          -2.8760    6.9945   -0.2066 H       1  LIG1        0.0625
     31 C          -5.8029    5.3743    1.7339 C.ar    1  LIG1       -0.0087
     32 C          -5.3302    6.6336    2.1175 C.ar    1  LIG1        0.1291
     33 H          -6.6251    4.9149    2.2767 H       1  LIG1        0.0661
     34 H          -3.5848    4.6894   -1.0741 H       1  LIG1        0.0625
     35 O          -5.8707    7.2580    3.1216 O.3     1  LIG1       -0.4880
     36 C          -5.0500    8.3696    3.4901 C.3     1  LIG1        0.1235
     37 H          -5.4953    8.8833    4.3164 H       1  LIG1        0.0731
     38 H          -4.0787    8.0185    3.7700 H       1  LIG1        0.1218
     39 H          -4.9618    9.0386    2.6598 H       1  LIG1        0.0731
     40 C          -3.2963    8.5909    3.0449 C.ar    1  LIG1        0.1086
     41 C          -3.8224    8.3821    1.7569 C.ar    1  LIG1        0.0271
     42 C          -3.8466    9.4554    0.8645 C.ar    1  LIG1       -0.0074
     43 C          -3.3491   10.6901    1.2849 C.ar    1  LIG1        0.1388
     44 C          -2.8434   10.8002    2.5932 C.ar    1  LIG1        0.0713
     45 N          -2.8123    9.7751    3.4670 N.ar    1  LIG1       -0.2380
     46 H          -4.2511    9.3306   -0.1499 H       1  LIG1        0.0662
     47 H          -2.3693   11.9288    3.0306 H       1  LIG1        0.0868
     48 N          -3.2522    7.6224    3.9110 N.pl3   1  LIG1       -0.4018
     49 H          -4.0424    7.0232    3.7815 H       1  LIG1        0.1218
     50 H          -2.4111    7.0974    3.7815 H       1  LIG1        0.1218
     51 O          -3.3496   11.7202    0.4917 O.3     1  LIG1       -0.4936
     52 C          -2.0018   12.0989    0.2005 C.3     1  LIG1        0.0789
     53 H          -2.0026   12.9466   -0.4525 H       1  LIG1        0.0660
     54 H          -1.4973   12.3499    1.1101 H       1  LIG1        0.0660
     55 H          -1.4968   11.2837   -0.2741 H       1  LIG1        0.0660
@<TRIPOS>BOND
     1    24    22    1
     2    34    26    1
     3    21    20    1
     4    20    16    1
     5    53    52    1
     6    16    17   ar
     7    16    15   ar
     8    55    52    1
     9    22    17    1
    10    22    25    1
    11    22    23    1
    12    30    27    1
    13    46    42    1
    14    17    18   ar
    15    26    27   ar
    16    26    28   ar
    17     7     3    1
    18    14    13    1
    19    13    12    3
    20    15     5    1
    21    15    19   ar
    22    12     4    1
    23     5     6   ar
    24     5     4   ar
    25     6     1   ar
    26     4     3   ar
    27     1     2   ar
    28     1     9    1
    29     2     3   ar
    30     2     8    1
    31     9    10    3
    32    10    11    1
    33    52    51    1
    34    52    54    1
    35    18    19   ar
    36    18    28    1
    37    27    29   ar
    38    51    43    1
    39    28    31   ar
    40    42    43   ar
    41    42    41   ar
    42    43    44   ar
    43    29    41    1
    44    29    32   ar
    45    31    32   ar
    46    31    33    1
    47    41    40   ar
    48    32    35    1
    49    44    47    1
    50    44    45   ar
    51    39    36    1
    52    40    45   ar
    53    40    48    1
    54    35    36    1
    55    36    37    1
    56    38    48    1
    57    50    48    1
    58    49    48    1
