@<TRIPOS>MOLECULE
mol_data/noopt/geoms/mol2/6ee4ih13fa-4ld-.out
 54 55 0 0 0
SMALL
GASTEIGER

@<TRIPOS>ATOM
      1 C          -4.5775   -2.0270    0.0001 C.ar    1  LIG1        0.1138
      2 C          -3.1706   -2.0270    0.0001 C.ar    1  LIG1       -0.0275
      3 C          -2.5039   -0.8004    0.0001 C.ar    1  LIG1       -0.0536
      4 C          -3.2580    0.3743   -0.0001 C.ar    1  LIG1       -0.0170
      5 C          -4.6612    0.2715   -0.0003 C.ar    1  LIG1        0.0762
      6 N          -5.3207   -0.9034   -0.0001 N.ar    1  LIG1       -0.2381
      7 H          -1.4054   -0.7607   -0.0009 H       1  LIG1        0.0622
      8 H          -2.5135   -3.1487    0.0004 H       1  LIG1        0.0645
      9 C          -5.2431   -3.1437    0.0002 C.1     1  LIG1       -0.0498
     10 C          -5.8581   -4.1755    0.0003 C.1     1  LIG1       -0.1124
     11 H          -6.4059   -5.0946    0.0004 H       1  LIG1        0.1232
     12 C          -2.6846    1.5410   -0.0003 C.3     1  LIG1        0.0011
     13 C          -2.1548    2.6190   -0.0005 C.3     2  LIG2       -0.0309
     14 H          -1.6828    3.5793   -0.0006 H       1  LIG1        0.0309
     15 C          -4.8076    2.6130    0.0003 C.ar    1  LIG1       -0.0371
     16 C          -5.6584    3.7353    0.0017 C.ar    1  LIG1       -0.0469
     17 C          -5.4065    1.3366   -0.0004 C.ar    1  LIG1        0.0056
     18 C          -7.0444    3.5952    0.0018 C.ar    1  LIG1        0.0229
     19 H          -5.2172    4.7295    0.0025 H       1  LIG1        0.0628
     20 C          -6.7901    1.1962   -0.0003 C.ar    1  LIG1       -0.0310
     21 C          -7.6184    2.3233    0.0007 C.ar    1  LIG1        0.0345
     22 H          -7.2278    0.2012   -0.0008 H       1  LIG1        0.0643
     23 C          -3.5219    2.8073    0.0000 C.3     1  LIG1       -0.0230
     24 H          -3.2997    3.7244    0.5044 H       1  LIG1        0.0317
     25 H          -3.1695    2.8606   -1.0089 H       1  LIG1        0.0317
     26 H          -3.0387    1.9967    0.5043 H       1  LIG1        0.0362
     27 N          -8.9112    2.1860    0.0009 N.pl3   1  LIG1       -0.3574
     28 H          -9.3290    2.9627   -0.4704 H       1  LIG1        0.1423
     29 H          -9.1564    1.3389   -0.4705 H       1  LIG1        0.1423
     30 CA         -7.8000    4.6531    0.0030 C.2     1  LIG1        0.0942
     31 C          -7.4710    5.9719    0.0201 C.2     1  LIG1        0.1848
     32 C          -8.6934    6.7178    0.0136 C.3     1  LIG1        0.0175
     33 C          -9.7156    5.8220   -0.0089 C.2     1  LIG1        0.0316
     34 N          -9.1732    4.5567   -0.0150 N.2     1  LIG1       -0.3541
     35 H          -9.6908    3.7083   -0.0306 H       1  LIG1        0.1657
     36 O          -6.2670    6.4620    0.0402 O.2     1  LIG1       -0.5019
     37 H          -6.3115    7.4210    0.0451 H       1  LIG1        0.2924
     38 H          -8.8084    8.0127    0.0263 H       1  LIG1        0.0376
     39 C         -11.5203    7.3210   -0.0079 C.ar    1  LIG1        0.1289
     40 C         -12.9204    7.4715   -0.0221 C.ar    1  LIG1       -0.0181
     41 C         -11.0018    6.0100   -0.0226 C.ar    1  LIG1        0.0373
     42 C         -13.7688    6.3669   -0.0504 C.ar    1  LIG1       -0.0409
     43 H         -13.3416    8.4743   -0.0110 H       1  LIG1        0.0655
     44 C         -11.8483    4.9069   -0.0508 C.ar    1  LIG1       -0.0320
     45 C         -13.2366    5.0771   -0.0650 C.ar    1  LIG1        0.0526
     46 H         -11.4242    3.9061   -0.0616 H       1  LIG1        0.0638
     47 H         -15.0568    6.5425   -0.0630 H       1  LIG1        0.0631
     48 O         -10.7803    8.3896    0.0182 O.3     1  LIG1       -0.4945
     49 C          -9.4004    8.0145    0.0277 C.3     1  LIG1        0.0788
     50 H          -8.7918    8.8943    0.0490 H       1  LIG1        0.0660
     51 H          -9.1984    7.4200    0.8941 H       1  LIG1        0.0660
     52 H          -9.1786    7.4486   -0.8528 H       1  LIG1        0.0660
     53 N         -14.7165    3.1294   -0.1143 N.1     1  LIG1       -0.1909
     54 C         -14.0229    4.0422   -0.0912 C.1     1  LIG1        0.0992
@<TRIPOS>BOND
     1    25    23    1
     2    52    49    1
     3    29    27    1
     4    28    27    1
     5    53    54    3
     6    54    45    1
     7    45    44   ar
     8    45    42   ar
     9    47    42    1
    10    46    44    1
    11    44    41   ar
    12    42    40   ar
    13    35    34    1
    14    41    33    1
    15    41    39   ar
    16    40    43    1
    17    40    39   ar
    18    34    33    2
    19    34    30    1
    20    33    32    1
    21    39    48    1
    22     7     3    1
    23    22    20    1
    24    14    13    1
    25    17    20   ar
    26    17     5    1
    27    17    15   ar
    28    20    21   ar
    29     5     6   ar
    30     5     4   ar
    31    12     4    1
    32    12    26    1
    33     6     1   ar
    34     4     3   ar
    35    23    15    1
    36    23    24    1
    37     1     2   ar
    38     1     9    1
    39     3     2   ar
    40     2     8    1
    41     9    10    3
    42    10    11    1
    43    15    16   ar
    44    21    27    1
    45    21    18   ar
    46    16    18   ar
    47    16    19    1
    48    18    30    1
    49    30    31    2
    50    32    38    1
    51    48    49    1
    52    31    36    1
    53    49    50    1
    54    49    51    1
    55    36    37    1
