@<TRIPOS>MOLECULE
mol_data/noopt/geoms/mol2/6ee4fe-12dd13dh-.out
 48 51 0 0 0
SMALL
GASTEIGER

@<TRIPOS>ATOM
      1 C          -4.5775   -2.0270    0.0001 C.ar    1  LIG1        0.1139
      2 C          -3.1706   -2.0270    0.0001 C.ar    1  LIG1       -0.0266
      3 C          -2.5039   -0.8004    0.0001 C.ar    1  LIG1       -0.0416
      4 C          -3.2580    0.3743   -0.0001 C.ar    1  LIG1        0.0508
      5 C          -4.6612    0.2715   -0.0003 C.ar    1  LIG1        0.0912
      6 N          -5.3207   -0.9034   -0.0001 N.ar    1  LIG1       -0.2371
      7 H          -1.4054   -0.7607   -0.0009 H       1  LIG1        0.0631
      8 H          -2.5135   -3.1487    0.0004 H       1  LIG1        0.0646
      9 C          -5.2431   -3.1437    0.0002 C.1     1  LIG1       -0.0498
     10 C          -5.8581   -4.1755    0.0003 C.1     1  LIG1       -0.1124
     11 H          -6.4059   -5.0946    0.0004 H       1  LIG1        0.1232
     12 C          -2.6846    1.5410   -0.0003 C.1     1  LIG1       -0.0675
     13 C          -2.1548    2.6190   -0.0005 C.1     1  LIG1       -0.1138
     14 H          -1.6828    3.5793   -0.0006 H       1  LIG1        0.1232
     15 C          -4.8078    2.6129    0.0216 C.ar    1  LIG1        0.1268
     16 C          -5.6586    3.7351    0.0221 C.ar    1  LIG1       -0.0076
     17 C          -5.4065    1.3366   -0.0004 C.ar    1  LIG1        0.0442
     18 C          -7.0444    3.5952    0.0010 C.ar    1  LIG1        0.0374
     19 H          -5.2175    4.7293    0.0391 H       1  LIG1        0.0662
     20 C          -6.7900    1.1963   -0.0215 C.ar    1  LIG1       -0.0329
     21 C          -7.6183    2.3234   -0.0211 C.ar    1  LIG1        0.0362
     22 H          -7.2275    0.2014   -0.0382 H       1  LIG1        0.0638
     23 O          -3.5225    2.8070    0.0417 O.3     1  LIG1       -0.5061
     24 H          -3.3409    3.7497    0.0466 H       1  LIG1        0.2922
     25 C          -8.9109    2.1862   -0.0407 C.1     1  LIG1       -0.0689
     26 C         -10.1052    2.0593   -0.0588 C.1     1  LIG1       -0.1139
     27 H         -11.1691    1.9463   -0.0750 H       1  LIG1        0.1232
     28 C          -7.8001    4.6530    0.0019 C.ar    1  LIG1        0.1556
     29 C          -7.5844    6.0156    0.0027 C.ar    1  LIG1        0.1155
     30 C          -8.8899    6.6422    0.0036 C.ar    1  LIG1        0.1169
     31 C          -9.8171    5.6204    0.0033 C.ar    1  LIG1        0.1717
     32 O          -9.1696    4.3845    0.0022 O.2     1  LIG1       -0.4506
     33 N          -5.4393    7.1922    0.0027 N.1     1  LIG1       -0.1907
     34 C          -6.4446    6.6408    0.0027 C.1     1  LIG1        0.1043
     35 N          -9.3151    9.0515    0.0053 N.1     1  LIG1       -0.1907
     36 C          -9.1158    7.9224    0.0045 C.1     1  LIG1        0.1043
     37 C         -11.1151    5.5475    0.0038 C.ar    1  LIG1        0.1028
     38 C         -12.0537    6.5309    0.0038 C.ar    1  LIG1        0.1006
     39 C         -13.3376    5.8967    0.0057 C.ar    1  LIG1        0.0604
     40 C         -13.1271    4.5537    0.0050 C.ar    1  LIG1        0.0244
     41 N         -11.7678    4.3355    0.0043 N.ar    1  LIG1       -0.3556
     42 H         -11.3276    3.4443    0.0036 H       1  LIG1        0.1655
     43 H         -13.9738    3.5672    0.0059 H       1  LIG1        0.0826
     44 N         -11.6216    8.9391    0.0038 N.1     1  LIG1       -0.1907
     45 C         -11.8241    7.8105    0.0038 C.1     1  LIG1        0.1032
     46 N         -14.4933    6.4920    0.0073 N.pl3   1  LIG1       -0.3558
     47 H         -14.4162    7.3708   -0.4637 H       1  LIG1        0.1424
     48 H         -15.1640    5.9191   -0.4638 H       1  LIG1        0.1424
@<TRIPOS>BOND
     1    48    46    1
     2    47    46    1
     3    27    26    1
     4    26    25    3
     5    25    21    1
     6    22    20    1
     7    20    21   ar
     8    20    17   ar
     9    21    18   ar
    10     7     3    1
    11    14    13    1
    12    13    12    3
    13    17     5    1
    14    17    15   ar
    15     5     6   ar
    16     5     4   ar
    17    12     4    1
    18     6     1   ar
    19     4     3   ar
    20     2     3   ar
    21     2     1   ar
    22     2     8    1
    23     1     9    1
    24     9    10    3
    25    10    11    1
    26    18    28    1
    27    18    16   ar
    28    28    32   ar
    29    28    29   ar
    30    32    31   ar
    31    33    34    3
    32    34    29    1
    33    29    30   ar
    34    31    30   ar
    35    31    37    1
    36    42    41    1
    37    30    36    1
    38    44    45    3
    39    45    38    1
    40    38    37   ar
    41    38    39   ar
    42    37    41   ar
    43    41    40   ar
    44    36    35    3
    45    40    39   ar
    46    40    43    1
    47    39    46    1
    48    15    16   ar
    49    15    23    1
    50    16    19    1
    51    23    24    1
