@<TRIPOS>MOLECULE
mol_data/noopt/geoms/mol2/6ee6ee6ee.out
 41 43 0 0 0
SMALL
GASTEIGER

@<TRIPOS>ATOM
      1 C          -4.5775   -2.0270    0.0001 C.ar    1  LIG1        0.1139
      2 C          -3.1706   -2.0270    0.0001 C.ar    1  LIG1       -0.0266
      3 C          -2.5039   -0.8004    0.0001 C.ar    1  LIG1       -0.0416
      4 C          -3.2580    0.3743   -0.0001 C.ar    1  LIG1        0.0508
      5 C          -4.6612    0.2715   -0.0003 C.ar    1  LIG1        0.0904
      6 N          -5.3207   -0.9034   -0.0001 N.ar    1  LIG1       -0.2371
      7 H          -1.4054   -0.7607   -0.0009 H       1  LIG1        0.0631
      8 H          -2.5135   -3.1487    0.0004 H       1  LIG1        0.0646
      9 C          -5.2431   -3.1437    0.0002 C.1     1  LIG1       -0.0498
     10 C          -5.8581   -4.1755    0.0003 C.1     1  LIG1       -0.1124
     11 H          -6.4059   -5.0946    0.0004 H       1  LIG1        0.1232
     12 C          -2.6846    1.5410   -0.0003 C.1     1  LIG1       -0.0675
     13 C          -2.1548    2.6190   -0.0005 C.1     1  LIG1       -0.1138
     14 H          -1.6828    3.5793   -0.0006 H       1  LIG1        0.1232
     15 C          -6.8088    1.2233   -0.0003 C.ar    1  LIG1        0.1231
     16 C          -5.4065    1.3366   -0.0004 C.ar    1  LIG1        0.0366
     17 C          -4.8408    2.6129   -0.0003 C.ar    1  LIG1       -0.0324
     18 C          -5.6871    3.7231   -0.0003 C.ar    1  LIG1        0.0514
     19 C          -7.0774    3.5076   -0.0004 C.ar    1  LIG1        0.0904
     20 N          -7.6401    2.2834   -0.0003 N.ar    1  LIG1       -0.2364
     21 H          -3.7491    2.7410   -0.0014 H       1  LIG1        0.0638
     22 C          -7.3823    0.0566   -0.0003 C.1     1  LIG1       -0.0491
     23 C          -7.9122   -1.0214   -0.0003 C.1     1  LIG1       -0.1124
     24 H          -8.3842   -1.9816   -0.0003 H       1  LIG1        0.1232
     25 C          -5.2095    4.9322   -0.0004 C.1     1  LIG1       -0.0675
     26 C          -4.7682    6.0494   -0.0004 C.1     1  LIG1       -0.1138
     27 H          -4.3752    7.0446   -0.0005 H       1  LIG1        0.1232
     28 C          -9.2948    4.2833   -0.0001 C.ar    1  LIG1        0.1224
     29 C          -7.9061    4.5092   -0.0003 C.ar    1  LIG1        0.0366
     30 C          -7.4450    5.8270   -0.0001 C.ar    1  LIG1       -0.0330
     31 C          -8.3780    6.8653    0.0002 C.ar    1  LIG1        0.0435
     32 C          -9.7465    6.5385    0.0002 C.ar    1  LIG1        0.0444
     33 N         -10.2087    5.2730    0.0002 N.ar    1  LIG1       -0.2448
     34 H          -6.3672    6.0425   -0.0012 H       1  LIG1        0.0638
     35 H         -10.6531    7.4701    0.0005 H       1  LIG1        0.0842
     36 C          -9.7724    3.0742   -0.0002 C.1     1  LIG1       -0.0491
     37 C         -10.2137    1.9570   -0.0002 C.1     1  LIG1       -0.1124
     38 H         -10.6069    0.9619   -0.0003 H       1  LIG1        0.1232
     39 C          -7.9994    8.1090    0.0002 C.1     1  LIG1       -0.0681
     40 C          -7.6495    9.2581    0.0002 C.1     1  LIG1       -0.1139
     41 H          -7.3379   10.2817    0.0002 H       1  LIG1        0.1232
@<TRIPOS>BOND
     1    21    17    1
     2    34    30    1
     3     7     3    1
     4    14    13    1
     5    27    26    1
     6    13    12    3
     7    26    25    3
     8    16     5    1
     9    16    15   ar
    10    16    17   ar
    11    19    20   ar
    12    19    29    1
    13    19    18   ar
    14    25    18    1
    15    38    37    1
    16     5     4   ar
    17     5     6   ar
    18    12     4    1
    19    15    22    1
    20    15    20   ar
    21    17    18   ar
    22    22    23    3
    23    23    24    1
    24    29    28   ar
    25    29    30   ar
    26    37    36    3
    27    36    28    1
    28     4     3   ar
    29     6     1   ar
    30    28    33   ar
    31    30    31   ar
    32     1     2   ar
    33     1     9    1
    34     3     2   ar
    35     2     8    1
    36    33    32   ar
    37    32    31   ar
    38    32    35    1
    39    31    39    1
    40    39    40    3
    41     9    10    3
    42    40    41    1
    43    10    11    1
