@<TRIPOS>MOLECULE
mol_data/noopt/geoms/mol2/6ee6fh12da-13id4fa13de-6lh13aa.out
 92 99 0 0 0
SMALL
GASTEIGER

@<TRIPOS>ATOM
      1 C          -4.5775   -2.0270    0.0001 C.ar    1  LIG1        0.1139
      2 C          -3.1706   -2.0270    0.0001 C.ar    1  LIG1       -0.0266
      3 C          -2.5039   -0.8004    0.0001 C.ar    1  LIG1       -0.0416
      4 C          -3.2580    0.3743   -0.0001 C.ar    1  LIG1        0.0509
      5 C          -4.6612    0.2715   -0.0003 C.ar    1  LIG1        0.0928
      6 N          -5.3207   -0.9034   -0.0001 N.ar    1  LIG1       -0.2370
      7 H          -1.4054   -0.7607   -0.0009 H       1  LIG1        0.0631
      8 H          -2.5135   -3.1487    0.0004 H       1  LIG1        0.0646
      9 C          -5.2431   -3.1437    0.0002 C.1     1  LIG1       -0.0498
     10 C          -5.8581   -4.1755    0.0003 C.1     1  LIG1       -0.1124
     11 H          -6.4059   -5.0946    0.0004 H       1  LIG1        0.1232
     12 C          -2.6846    1.5410   -0.0003 C.1     1  LIG1       -0.0675
     13 C          -2.1548    2.6190   -0.0005 C.1     1  LIG1       -0.1138
     14 H          -1.6828    3.5793   -0.0006 H       1  LIG1        0.1232
     15 C          -6.8088    1.2233   -0.0003 C.ar    1  LIG1        0.2225
     16 C          -5.4065    1.3366   -0.0004 C.ar    1  LIG1        0.0647
     17 C          -4.8408    2.6129   -0.0003 C.ar    1  LIG1       -0.0245
     18 C          -5.6871    3.7231   -0.0003 C.ar    1  LIG1        0.0549
     19 C          -7.0774    3.5076   -0.0004 C.ar    1  LIG1        0.1316
     20 N          -7.6401    2.2834   -0.0003 N.ar    1  LIG1       -0.2074
     21 H          -3.7491    2.7410   -0.0014 H       1  LIG1        0.0645
     22 O          -7.3823    0.0566   -0.0003 O.3     1  LIG1       -0.4919
     23 H          -6.7115   -0.6302   -0.0003 H       1  LIG1        0.2937
     24 N          -5.2095    4.9322   -0.0004 N.pl3   1  LIG1       -0.3562
     25 H          -4.3276    4.9422   -0.4718 H       1  LIG1        0.1424
     26 H          -5.8464    5.5421   -0.4718 H       1  LIG1        0.1424
     27 C          -7.9061    4.5092   -0.0003 C.ar    1  LIG1        0.1731
     28 C          -7.7876    5.8835    0.0146 C.ar    1  LIG1        0.0996
     29 C          -9.1342    6.4161    0.0040 C.ar    1  LIG1        0.0038
     30 C          -9.9866    5.3313   -0.0167 C.ar    1  LIG1        0.1534
     31 O          -9.2530    4.1444   -0.0199 O.2     1  LIG1       -0.4504
     32 N          -5.7315    7.2090    0.0519 N.1     1  LIG1       -0.1907
     33 C          -6.6951    6.5878    0.0344 C.1     1  LIG1        0.1030
     34 H          -9.4503    7.6770    0.0127 H       1  LIG1        0.0669
     35 C         -11.2760    5.1667   -0.0335 C.ar    1  LIG1        0.0868
     36 C         -12.2820    6.0810   -0.0286 C.ar    1  LIG1       -0.0042
     37 C         -13.5175    5.3576   -0.0532 C.ar    1  LIG1        0.0807
     38 C         -13.2123    4.0330   -0.0739 C.ar    1  LIG1        0.0683
     39 N         -11.8410    3.9117   -0.0614 N.ar    1  LIG1       -0.3504
     40 H         -11.3386    3.0541   -0.0716 H       1  LIG1        0.1660
     41 C         -12.1438    7.3738   -0.0043 C.3     1  LIG1       -0.0364
     42 H         -12.9756    7.8119    0.5067 H       1  LIG1        0.0279
     43 H         -12.1039    7.7471   -1.0063 H       1  LIG1        0.0279
     44 H         -11.2381    7.6261    0.5066 H       1  LIG1        0.0279
     45 N         -15.7665    6.3209   -0.0584 N.1     1  LIG1       -0.1908
     46 C         -14.7125    5.8694   -0.0560 C.1     1  LIG1        0.1016
     47 C         -15.3869    3.1536   -0.1133 C.ar    1  LIG1        0.1266
     48 C         -16.1822    1.9916   -0.1401 C.ar    1  LIG1       -0.0104
     49 C         -13.9867    2.9893   -0.1000 C.ar    1  LIG1        0.0410
     50 C         -15.6107    0.7213   -0.1536 C.ar    1  LIG1        0.0031
     51 H         -17.2649    2.0956   -0.1506 H       1  LIG1        0.0661
     52 C         -13.4156    1.7212   -0.1135 C.ar    1  LIG1       -0.0485
     53 C         -14.2226    0.5791   -0.1404 C.ar    1  LIG1       -0.0517
     54 H         -12.3333    1.6208   -0.1027 H       1  LIG1        0.0625
     55 O         -15.9779    4.3114   -0.1021 O.3     1  LIG1       -0.5061
     56 H         -16.9296    4.1854   -0.0993 H       1  LIG1        0.2922
     57 H         -13.6832   -0.6037   -0.1528 H       1  LIG1        0.0624
     58 C         -16.3750   -0.3301   -0.1784 C.ar    1  LIG1        0.0658
     59 C         -17.7303   -0.4354   -0.1790 C.ar    1  LIG1        0.0929
     60 C         -18.0508   -1.8306   -0.2118 C.ar    1  LIG1        0.0680
     61 C         -16.8773   -2.5166   -0.2316 C.ar    1  LIG1        0.0690
     62 N         -15.8488   -1.6018   -0.2108 N.ar    1  LIG1       -0.3520
     63 H         -14.8800   -1.8241   -0.2186 H       1  LIG1        0.1660
     64 N         -19.3226    1.4215   -0.1298 N.1     1  LIG1       -0.1908
     65 C         -18.5764    0.5513   -0.1529 C.1     1  LIG1        0.1025
     66 C         -19.2428   -2.3495   -0.2215 C.1     1  LIG1       -0.0662
     67 C         -20.3441   -2.8289   -0.2304 C.1     1  LIG1       -0.1138
     68 H         -21.3252   -3.2559   -0.2384 H       1  LIG1        0.1232
     69 C         -15.3283   -4.2819   -0.2805 C.ar    1  LIG1        0.2246
     70 C         -16.6485   -3.7959   -0.2633 C.ar    1  LIG1        0.0628
     71 C         -17.6980   -4.7163   -0.2807 C.ar    1  LIG1       -0.0246
     72 C         -17.3965   -6.0788   -0.3146 C.ar    1  LIG1        0.0532
     73 C         -16.0443   -6.4671   -0.3298 C.ar    1  LIG1        0.1115
     74 N         -15.0193   -5.5927   -0.3132 N.ar    1  LIG1       -0.2090
     75 H         -18.7426   -4.3740   -0.2691 H       1  LIG1        0.0645
     76 O         -14.3177   -3.4642   -0.2652 O.3     1  LIG1       -0.4792
     77 C         -13.0988   -4.2120   -0.2597 C.3     1  LIG1        0.0804
     78 H         -12.2673   -3.5386   -0.2473 H       1  LIG1        0.0660
     79 H         -13.0663   -4.8348    0.6098 H       1  LIG1        0.0660
     80 H         -13.0506   -4.8221   -1.1374 H       1  LIG1        0.0660
     81 N         -18.3378   -6.9752   -0.3321 N.pl3   1  LIG1       -0.3563
     82 H         -19.1377   -6.6094   -0.8080 H       1  LIG1        0.1424
     83 H         -18.0115   -7.7920   -0.8080 H       1  LIG1        0.1424
     84 C         -15.7130   -7.7238   -0.3612 C.ar    1  LIG1        0.0669
     85 C         -16.4884   -8.8404   -0.3662 C.ar    1  LIG1       -0.0349
     86 C         -15.6102   -9.9708   -0.4057 C.ar    1  LIG1       -0.0438
     87 C         -14.3368   -9.4952   -0.4248 C.ar    1  LIG1        0.0022
     88 N         -14.3952   -8.1201   -0.3972 N.ar    1  LIG1       -0.3594
     89 H         -13.6103   -7.5101   -0.4030 H       1  LIG1        0.1654
     90 H         -13.2010  -10.1267   -0.4611 H       1  LIG1        0.0807
     91 H         -17.7878   -8.8722   -0.3386 H       1  LIG1        0.0639
     92 H         -15.9619  -11.2222   -0.4211 H       1  LIG1        0.0633
@<TRIPOS>BOND
     1    80    77    1
     2    43    41    1
     3    83    81    1
     4    82    81    1
     5    26    24    1
     6    25    24    1
     7    90    87    1
     8    87    86   ar
     9    87    88   ar
    10    92    86    1
    11    86    85   ar
    12    89    88    1
    13    88    84   ar
    14    85    84   ar
    15    85    91    1
    16    84    73    1
    17    81    72    1
    18    73    72   ar
    19    73    74   ar
    20    72    71   ar
    21    74    69   ar
    22    71    75    1
    23    71    70   ar
    24    69    76    1
    25    69    70   ar
    26    76    77    1
    27    70    61    1
    28    77    78    1
    29    77    79    1
    30    68    67    1
    31    61    60   ar
    32    61    62   ar
    33    67    66    3
    34    66    60    1
    35    63    62    1
    36    60    59   ar
    37    62    58   ar
    38    59    58   ar
    39    59    65    1
    40    58    50    1
    41    50    53   ar
    42    50    48   ar
    43    65    64    3
    44    57    53    1
    45    51    48    1
    46    53    52   ar
    47    48    47   ar
    48    52    54    1
    49    52    49   ar
    50    47    55    1
    51    47    49   ar
    52    55    56    1
    53    49    38    1
    54    38    39   ar
    55    38    37   ar
    56    40    39    1
    57    39    35   ar
    58    45    46    3
    59    46    37    1
    60    37    36   ar
    61    35    36   ar
    62    35    30    1
    63    36    41    1
    64    31    30   ar
    65    31    27   ar
    66    30    29   ar
    67    41    44    1
    68    41    42    1
    69    21    17    1
    70     7     3    1
    71    14    13    1
    72    13    12    3
    73    16     5    1
    74    16    15   ar
    75    16    17   ar
    76    19    20   ar
    77    19    27    1
    78    19    18   ar
    79    24    18    1
    80     5     4   ar
    81     5     6   ar
    82    12     4    1
    83    15    22    1
    84    15    20   ar
    85    17    18   ar
    86    22    23    1
    87    27    28   ar
    88     4     3   ar
    89     6     1   ar
    90     2     3   ar
    91     2     1   ar
    92     2     8    1
    93     1     9    1
    94     9    10    3
    95    10    11    1
    96    29    34    1
    97    29    28   ar
    98    28    33    1
    99    33    32    3
