@<TRIPOS>MOLECULE
mol_data/noopt/geoms/mol2/6ee6ee(80)4aa(100)4af(320).out
 49 52 0 0 0
SMALL
GASTEIGER

@<TRIPOS>ATOM
      1 C          -4.5775   -2.0270    0.0001 C.ar    1  LIG1        0.1139
      2 C          -3.1706   -2.0270    0.0001 C.ar    1  LIG1       -0.0266
      3 C          -2.5039   -0.8004    0.0001 C.ar    1  LIG1       -0.0416
      4 C          -3.2580    0.3743   -0.0001 C.ar    1  LIG1        0.0508
      5 C          -4.6612    0.2715   -0.0003 C.ar    1  LIG1        0.0904
      6 N          -5.3207   -0.9034   -0.0001 N.ar    1  LIG1       -0.2371
      7 H          -1.4054   -0.7607   -0.0009 H       1  LIG1        0.0631
      8 H          -2.5135   -3.1487    0.0004 H       1  LIG1        0.0646
      9 C          -5.2431   -3.1437    0.0002 C.1     1  LIG1       -0.0498
     10 C          -5.8581   -4.1755    0.0003 C.1     1  LIG1       -0.1124
     11 H          -6.4059   -5.0946    0.0004 H       1  LIG1        0.1232
     12 C          -2.6846    1.5410   -0.0003 C.1     1  LIG1       -0.0675
     13 C          -2.1548    2.6190   -0.0005 C.1     1  LIG1       -0.1138
     14 H          -1.6828    3.5793   -0.0006 H       1  LIG1        0.1232
     15 C          -5.9872    1.7981   -1.1959 C.ar    1  LIG1        0.1231
     16 C          -5.4065    1.3366   -0.0004 C.ar    1  LIG1        0.0366
     17 C          -5.6501    2.0468    1.1766 C.ar    1  LIG1       -0.0324
     18 C          -6.4579    3.1838    1.1205 C.ar    1  LIG1        0.0513
     19 C          -6.9934    3.5664   -0.1230 C.ar    1  LIG1        0.0877
     20 N          -6.7689    2.8929   -1.2682 N.ar    1  LIG1       -0.2365
     21 H          -5.2127    1.7170    2.1297 H       1  LIG1        0.0638
     22 C          -5.7897    1.1708   -2.3173 C.1     1  LIG1       -0.0491
     23 C          -5.6073    0.5912   -3.3534 C.1     1  LIG1       -0.1124
     24 H          -5.4448    0.0748   -4.2764 H       1  LIG1        0.1232
     25 C          -6.7145    3.8793    2.1884 C.1     1  LIG1       -0.0675
     26 C          -6.9516    4.5219    3.1752 C.1     1  LIG1       -0.1138
     27 H          -7.1627    5.0944    4.0542 H       1  LIG1        0.1232
     28 C          -8.3896    5.1383    0.9180 C.ar    1  LIG1       -0.0520
     29 C          -9.2013    6.2773    0.7534 C.ar    1  LIG1       -0.0534
     30 C          -7.7514    4.6174   -0.2262 C.ar    1  LIG1        0.0016
     31 C          -9.3710    6.8734   -0.4943 C.ar    1  LIG1       -0.0177
     32 H          -9.7032    6.6954    1.6231 H       1  LIG1        0.0624
     33 C          -7.9204    5.2121   -1.4720 C.ar    1  LIG1       -0.0520
     34 C          -8.7305    6.3433   -1.6150 C.ar    1  LIG1       -0.0534
     35 H          -7.4177    4.7916   -2.3392 H       1  LIG1        0.0624
     36 H          -8.2697    4.6269    2.1071 H       1  LIG1        0.0624
     37 H          -8.8850    6.8948   -2.7821 H       1  LIG1        0.0624
     38 C          -9.7352    8.9826   -1.4546 C.ar    1  LIG1       -0.0538
     39 C         -10.5886   10.0993   -1.5445 C.ar    1  LIG1       -0.0577
     40 C         -10.1275    7.9241   -0.6100 C.ar    1  LIG1       -0.0144
     41 C         -11.7808   10.1611   -0.8265 C.ar    1  LIG1       -0.0201
     42 H         -10.3049   10.9273   -2.1903 H       1  LIG1        0.0619
     43 C         -11.3176    7.9853    0.1069 C.ar    1  LIG1       -0.0125
     44 C         -12.1522    9.1031    0.0040 C.ar    1  LIG1        0.1174
     45 H         -11.5981    7.1563    0.7516 H       1  LIG1        0.0660
     46 H         -12.5450   11.2073   -0.9332 H       1  LIG1        0.0654
     47 H          -8.6361    8.9826   -2.1490 H       1  LIG1        0.0624
     48 O         -13.2635    9.1548    0.6768 O.3     1  LIG1       -0.5067
     49 H         -13.5794    8.2636    0.8426 H       1  LIG1        0.2921
@<TRIPOS>BOND
     1    24    23    1
     2    23    22    3
     3    37    34    1
     4    35    33    1
     5    22    15    1
     6    42    39    1
     7    47    38    1
     8    34    33   ar
     9    34    31   ar
    10    39    38   ar
    11    39    41   ar
    12    33    30   ar
    13    38    40   ar
    14    20    15   ar
    15    20    19   ar
    16    15    16   ar
    17    46    41    1
    18    41    44   ar
    19    40    31    1
    20    40    43   ar
    21    31    29   ar
    22    30    19    1
    23    30    28   ar
    24    19    18   ar
    25     7     3    1
    26    14    13    1
    27    13    12    3
    28    16     5    1
    29    16    17   ar
    30    12     4    1
    31     5     6   ar
    32     5     4   ar
    33     6     1   ar
    34     4     3   ar
    35     3     2   ar
    36     1     2   ar
    37     1     9    1
    38     2     8    1
    39     9    10    3
    40    10    11    1
    41    44    43   ar
    42    44    48    1
    43    43    45    1
    44    48    49    1
    45    29    28   ar
    46    29    32    1
    47    28    36    1
    48    18    17   ar
    49    18    25    1
    50    17    21    1
    51    25    26    3
    52    26    27    1
