@<TRIPOS>MOLECULE
mol_data/noopt/geoms/mol2/6ee6ee.out
 28 29 0 0 0
SMALL
GASTEIGER

@<TRIPOS>ATOM
      1 C          -4.5775   -2.0270    0.0001 C.ar    1  LIG1        0.1139
      2 C          -3.1706   -2.0270    0.0001 C.ar    1  LIG1       -0.0266
      3 C          -2.5039   -0.8004    0.0001 C.ar    1  LIG1       -0.0416
      4 C          -3.2580    0.3743   -0.0001 C.ar    1  LIG1        0.0508
      5 C          -4.6612    0.2715   -0.0003 C.ar    1  LIG1        0.0904
      6 N          -5.3207   -0.9034   -0.0001 N.ar    1  LIG1       -0.2371
      7 H          -1.4054   -0.7607   -0.0009 H       1  LIG1        0.0631
      8 H          -2.5135   -3.1487    0.0004 H       1  LIG1        0.0646
      9 C          -5.2431   -3.1437    0.0002 C.1     1  LIG1       -0.0498
     10 C          -5.8581   -4.1755    0.0003 C.1     1  LIG1       -0.1124
     11 H          -6.4059   -5.0946    0.0004 H       1  LIG1        0.1232
     12 C          -2.6846    1.5410   -0.0003 C.1     1  LIG1       -0.0675
     13 C          -2.1548    2.6190   -0.0005 C.1     1  LIG1       -0.1138
     14 H          -1.6828    3.5793   -0.0006 H       1  LIG1        0.1232
     15 C          -6.8088    1.2233   -0.0003 C.ar    1  LIG1        0.1224
     16 C          -5.4065    1.3366   -0.0004 C.ar    1  LIG1        0.0366
     17 C          -4.8408    2.6129   -0.0003 C.ar    1  LIG1       -0.0330
     18 C          -5.6871    3.7231   -0.0003 C.ar    1  LIG1        0.0435
     19 C          -7.0774    3.5076   -0.0004 C.ar    1  LIG1        0.0444
     20 N          -7.6401    2.2834   -0.0003 N.ar    1  LIG1       -0.2448
     21 H          -3.7491    2.7410   -0.0014 H       1  LIG1        0.0638
     22 H          -7.9061    4.5092   -0.0003 H       1  LIG1        0.0842
     23 C          -7.3823    0.0566   -0.0003 C.1     1  LIG1       -0.0491
     24 C          -7.9122   -1.0214   -0.0003 C.1     1  LIG1       -0.1124
     25 H          -8.3842   -1.9816   -0.0003 H       1  LIG1        0.1232
     26 C          -5.2095    4.9322   -0.0004 C.1     1  LIG1       -0.0681
     27 C          -4.7682    6.0494   -0.0004 C.1     1  LIG1       -0.1139
     28 H          -4.3752    7.0446   -0.0005 H       1  LIG1        0.1232
@<TRIPOS>BOND
     1    21    17    1
     2     7     3    1
     3    14    13    1
     4    28    27    1
     5    13    12    3
     6    27    26    3
     7    16     5    1
     8    16    15   ar
     9    16    17   ar
    10    19    20   ar
    11    19    22    1
    12    19    18   ar
    13    26    18    1
    14     5     6   ar
    15     5     4   ar
    16    12     4    1
    17    15    23    1
    18    15    20   ar
    19    17    18   ar
    20    23    24    3
    21    24    25    1
    22     6     1   ar
    23     4     3   ar
    24     1     2   ar
    25     1     9    1
    26     3     2   ar
    27     2     8    1
    28     9    10    3
    29    10    11    1
