@<TRIPOS>MOLECULE
mol_data/noopt/geoms/mol2/6ef13al4fi-6fe-.out
 52 53 0 0 0
SMALL
GASTEIGER

@<TRIPOS>ATOM
      1 C          -4.5775   -2.0270    0.0001 C.ar    1  LIG1        0.1141
      2 C          -3.1706   -2.0270    0.0001 C.ar    1  LIG1       -0.0243
      3 C          -2.5039   -0.8004    0.0001 C.ar    1  LIG1       -0.0154
      4 C          -3.2580    0.3743   -0.0001 C.ar    1  LIG1        0.1442
      5 C          -4.6612    0.2715   -0.0003 C.ar    1  LIG1        0.1298
      6 N          -5.3207   -0.9034   -0.0001 N.ar    1  LIG1       -0.2333
      7 H          -1.4054   -0.7607   -0.0009 H       1  LIG1        0.0655
      8 H          -2.5135   -3.1487    0.0004 H       1  LIG1        0.0646
      9 C          -5.2431   -3.1437    0.0002 C.1     1  LIG1       -0.0498
     10 C          -5.8581   -4.1755    0.0003 C.1     1  LIG1       -0.1124
     11 H          -6.4059   -5.0946    0.0004 H       1  LIG1        0.1232
     12 O          -2.6846    1.5410   -0.0003 O.3     1  LIG1       -0.5046
     13 H          -3.3554    2.2278   -0.0003 H       1  LIG1        0.2922
     14 C          -5.4065    1.3366   -0.0004 C.ar    1  LIG1        0.0726
     15 C          -5.0646    2.6523   -0.0008 C.ar    1  LIG1        0.0077
     16 C          -6.2797    3.4100    0.0004 C.ar    1  LIG1        0.1460
     17 C          -7.3108    2.5240   -0.0003 C.ar    1  LIG1        0.0927
     18 N          -6.7806    1.2535   -0.0003 N.ar    1  LIG1       -0.3498
     19 H          -7.3066    0.4100   -0.0008 H       1  LIG1        0.1661
     20 H          -3.8559    3.1308   -0.0007 H       1  LIG1        0.0676
     21 O          -6.3821    4.7060    0.0014 O.3     1  LIG1       -0.4930
     22 C          -5.0759    5.2879    0.0017 C.3     1  LIG1        0.0789
     23 H          -5.1606    6.3546    0.0024 H       1  LIG1        0.0660
     24 H          -4.5447    4.9718    0.8752 H       1  LIG1        0.0660
     25 H          -4.5448    4.9729   -0.8721 H       1  LIG1        0.0660
     26 C          -9.1008    4.0404    0.0226 C.ar    1  LIG1        0.1266
     27 C         -10.4995    4.2043    0.0237 C.ar    1  LIG1       -0.0115
     28 C          -8.5952    2.7244    0.0002 C.ar    1  LIG1        0.0436
     29 C         -11.3587    3.1080    0.0028 C.ar    1  LIG1       -0.0091
     30 H         -10.9109    5.2111    0.0409 H       1  LIG1        0.0660
     31 C          -9.4525    1.6296   -0.0206 C.ar    1  LIG1       -0.0452
     32 C         -10.8392    1.8131   -0.0195 C.ar    1  LIG1       -0.0384
     33 H          -9.0382    0.6248   -0.0375 H       1  LIG1        0.0628
     34 O          -8.3503    5.1017    0.0423 O.3     1  LIG1       -0.5061
     35 H          -8.9043    5.8858    0.0472 H       1  LIG1        0.2922
     36 C         -11.6359    0.7856   -0.0389 C.3     1  LIG1       -0.0231
     37 H         -11.1686   -0.0375    0.4602 H       1  LIG1        0.0316
     38 H         -11.8452    0.5156   -1.0529 H       1  LIG1        0.0316
     39 H         -12.5494    1.0333    0.4601 H       0  HOH0        0.2528
     40 C         -13.5242    2.1978   -0.0158 C.ar    1  LIG1        0.0975
     41 C         -12.6451    3.2959    0.0044 C.ar    1  LIG1        0.0112
     42 C         -13.1860    4.5828    0.0262 C.ar    1  LIG1       -0.0350
     43 C         -14.5744    4.7281    0.0270 C.ar    1  LIG1        0.0434
     44 C         -15.3710    3.5686    0.0057 C.ar    1  LIG1        0.0437
     45 N         -14.8658    2.3197   -0.0153 N.ar    1  LIG1       -0.2516
     46 H         -12.5306    5.4650    0.0414 H       1  LIG1        0.0637
     47 H         -16.6682    3.6523    0.0056 H       1  LIG1        0.0842
     48 O         -13.0683    0.9804   -0.0364 O.3     2  HOH2       -0.2528
     49 H         -12.1085    0.9978   -0.0415 H       3  UNK3        0.0000
     50 C         -15.1269    5.9047    0.0468 C.1     1  LIG1       -0.0681
     51 C         -15.6375    6.9918    0.0650 C.1     1  LIG1       -0.1139
     52 H         -16.0922    7.9602    0.0813 H       1  LIG1        0.1232
@<TRIPOS>BOND
     1    38    36    1
     2    25    22    1
     3    36    32    1
     4    36    37    1
     5    33    31    1
     6    48    39    1
     7    31    32   ar
     8    31    28   ar
     9    32    29   ar
    10    40    45   ar
    11    40    41   ar
    12    45    44   ar
    13     7     3    1
    14    15    20    1
    15    15    14   ar
    16    15    16   ar
    17    19    18    1
    18    14     5    1
    19    14    18   ar
    20    13    12    1
    21    12     4    1
    22     5     6   ar
    23     5     4   ar
    24    18    17   ar
    25    17    28    1
    26    17    16   ar
    27     6     1   ar
    28     4     3   ar
    29     1     2   ar
    30     1     9    1
    31     3     2   ar
    32     2     8    1
    33     9    10    3
    34    28    26   ar
    35    10    11    1
    36    16    21    1
    37    21    22    1
    38    22    23    1
    39    22    24    1
    40    29    41    1
    41    29    27   ar
    42    41    42   ar
    43    47    44    1
    44    44    43   ar
    45    26    27   ar
    46    26    34    1
    47    27    30    1
    48    42    43   ar
    49    42    46    1
    50    43    50    1
    51    34    35    1
    52    50    51    3
    53    51    52    1
