@<TRIPOS>MOLECULE
mol_data/noopt/geoms/mol2/6ef12la(240)4fh(350)4dh(260).out
 51 54 0 0 0
SMALL
GASTEIGER

@<TRIPOS>ATOM
      1 C          -4.5775   -2.0270    0.0001 C.ar    1  LIG1        0.1142
      2 C          -3.1706   -2.0270    0.0001 C.ar    1  LIG1       -0.0243
      3 C          -2.5039   -0.8004    0.0001 C.ar    1  LIG1       -0.0153
      4 C          -3.2580    0.3743   -0.0001 C.ar    1  LIG1        0.1460
      5 C          -4.6612    0.2715   -0.0003 C.ar    1  LIG1        0.1522
      6 N          -5.3207   -0.9034   -0.0001 N.ar    1  LIG1       -0.2315
      7 H          -1.4054   -0.7607   -0.0009 H       1  LIG1        0.0655
      8 H          -2.5135   -3.1487    0.0004 H       1  LIG1        0.0646
      9 C          -5.2431   -3.1437    0.0002 C.1     1  LIG1       -0.0498
     10 C          -5.8581   -4.1755    0.0003 C.1     1  LIG1       -0.1124
     11 H          -6.4059   -5.0946    0.0004 H       1  LIG1        0.1232
     12 O          -2.6846    1.5410   -0.0003 O.3     1  LIG1       -0.5045
     13 H          -3.3554    2.2278   -0.0003 H       1  LIG1        0.2922
     14 C          -5.4065    1.3366   -0.0004 C.ar    1  LIG1        0.1987
     15 C          -6.4065    1.8370   -0.8083 C.ar    1  LIG1        0.1679
     16 C          -6.8191    3.0968   -0.2255 C.ar    1  LIG1        0.0268
     17 C          -6.0436    3.2827    0.9004 C.ar    1  LIG1        0.1430
     18 O          -5.1650    2.2106    1.0605 O.2     1  LIG1       -0.4492
     19 O          -6.9003    1.3037   -1.8862 O.3     1  LIG1       -0.4912
     20 C          -8.0707    2.0237   -2.2819 C.3     1  LIG1        0.0790
     21 H          -8.4766    1.5846   -3.1692 H       1  LIG1        0.0660
     22 H          -8.7978    1.9811   -1.4980 H       1  LIG1        0.0660
     23 H          -7.8135    3.0443   -2.4747 H       1  LIG1        0.0660
     24 H          -7.7443    3.8811   -0.6934 H       1  LIG1        0.0692
     25 C          -4.6816    4.7158    2.1633 C.ar    1  LIG1        0.1282
     26 C          -4.6299    5.7056    3.1638 C.ar    1  LIG1       -0.0100
     27 C          -5.9469    4.1988    1.8176 C.ar    1  LIG1        0.0605
     28 C          -5.7857    6.1623    3.7932 C.ar    1  LIG1        0.0075
     29 H          -3.6638    6.1180    3.4460 H       1  LIG1        0.0661
     30 C          -7.1010    4.6544    2.4456 C.ar    1  LIG1       -0.0263
     31 C          -7.0291    5.6385    3.4370 C.ar    1  LIG1        0.0333
     32 H          -8.0650    4.2400    2.1615 H       1  LIG1        0.0644
     33 O          -3.5691    4.3303    1.6121 O.3     1  LIG1       -0.5060
     34 H          -2.9985    5.0903    1.4762 H       1  LIG1        0.2922
     35 N          -8.1114    6.0604    4.0207 N.pl3   1  LIG1       -0.3575
     36 H          -8.2895    7.0062    3.7491 H       1  LIG1        0.1423
     37 H          -8.8826    5.4848    3.7491 H       1  LIG1        0.1423
     38 C          -5.7882    8.4392    4.3586 C.ar    1  LIG1        0.0596
     39 C          -5.6895    9.3917    5.3913 C.ar    1  LIG1       -0.0420
     40 C          -5.7013    7.0772    4.7128 C.ar    1  LIG1        0.0031
     41 C          -5.5128    9.0074    6.7185 C.ar    1  LIG1       -0.0398
     42 H          -5.7538   10.4481    5.1401 H       1  LIG1        0.0631
     43 C          -5.5249    6.6931    6.0377 C.ar    1  LIG1       -0.0320
     44 C          -5.4295    7.6543    7.0493 C.ar    1  LIG1        0.0252
     45 H          -5.4608    5.6366    6.2853 H       1  LIG1        0.0642
     46 H          -5.4258    9.9135    7.6467 H       1  LIG1        0.0636
     47 N          -6.0982    9.2290    2.0639 N.1     1  LIG1       -0.1909
     48 C          -5.9529    8.8589    3.1393 C.1     1  LIG1        0.0998
     49 N          -5.2644    7.2892    8.2860 N.pl3   1  LIG1       -0.3579
     50 H          -5.7813    6.4506    8.4578 H       1  LIG1        0.1423
     51 H          -4.2934    7.1234    8.4579 H       1  LIG1        0.1423
@<TRIPOS>BOND
     1    21    20    1
     2    23    20    1
     3    20    19    1
     4    20    22    1
     5    19    15    1
     6    15    16   ar
     7    15    14   ar
     8    24    16    1
     9    16    17   ar
    10     7     3    1
    11    14     5    1
    12    14    18   ar
    13    13    12    1
    14     5     4   ar
    15     5     6   ar
    16    12     4    1
    17     4     3   ar
    18     6     1   ar
    19     1     2   ar
    20     1     9    1
    21     3     2   ar
    22     2     8    1
    23     9    10    3
    24    10    11    1
    25    17    18   ar
    26    17    27    1
    27    34    33    1
    28    33    25    1
    29    27    25   ar
    30    27    30   ar
    31    47    48    3
    32    32    30    1
    33    25    26   ar
    34    30    31   ar
    35    48    38    1
    36    26    29    1
    37    26    28   ar
    38    31    28   ar
    39    31    35    1
    40    37    35    1
    41    36    35    1
    42    28    40    1
    43    38    40   ar
    44    38    39   ar
    45    40    43   ar
    46    42    39    1
    47    39    41   ar
    48    43    45    1
    49    43    44   ar
    50    41    44   ar
    51    41    46    1
    52    44    49    1
    53    49    50    1
    54    49    51    1
