@<TRIPOS>MOLECULE
mol_data/noopt/geoms/mol2/6ef6dl13hl13de-.out
 53 55 0 0 0
SMALL
GASTEIGER

@<TRIPOS>ATOM
      1 C          -4.5775   -2.0270    0.0001 C.ar    1  LIG1        0.1141
      2 C          -3.1706   -2.0270    0.0001 C.ar    1  LIG1       -0.0243
      3 C          -2.5039   -0.8004    0.0001 C.ar    1  LIG1       -0.0154
      4 C          -3.2580    0.3743   -0.0001 C.ar    1  LIG1        0.1429
      5 C          -4.6612    0.2715   -0.0003 C.ar    1  LIG1        0.1165
      6 N          -5.3207   -0.9034   -0.0001 N.ar    1  LIG1       -0.2347
      7 H          -1.4054   -0.7607   -0.0009 H       1  LIG1        0.0655
      8 H          -2.5135   -3.1487    0.0004 H       1  LIG1        0.0646
      9 C          -5.2431   -3.1437    0.0002 C.1     1  LIG1       -0.0498
     10 C          -5.8581   -4.1755    0.0003 C.1     1  LIG1       -0.1124
     11 H          -6.4059   -5.0946    0.0004 H       1  LIG1        0.1232
     12 O          -2.6846    1.5410   -0.0003 O.3     1  LIG1       -0.5046
     13 H          -3.3554    2.2278   -0.0003 H       1  LIG1        0.2922
     14 C          -6.8088    1.2233   -0.0003 C.ar    1  LIG1        0.1503
     15 C          -5.4065    1.3366   -0.0004 C.ar    1  LIG1        0.0435
     16 C          -4.8408    2.6129   -0.0003 C.ar    1  LIG1       -0.0007
     17 C          -5.6871    3.7231   -0.0003 C.ar    1  LIG1        0.2069
     18 C          -7.0774    3.5076   -0.0004 C.ar    1  LIG1        0.1370
     19 N          -7.6401    2.2834   -0.0003 N.ar    1  LIG1       -0.2303
     20 H          -3.7491    2.7410   -0.0014 H       1  LIG1        0.0664
     21 N          -7.8881   -0.9724   -0.0003 N.1     1  LIG1       -0.1893
     22 C          -7.3823    0.0566   -0.0003 C.1     1  LIG1        0.1198
     23 O          -5.2095    4.9322   -0.0004 O.3     1  LIG1       -0.2856
     24 C          -3.7804    4.8809   -0.0005 C.3     2  LIG2       -0.0681
     25 H          -3.3877    5.8763   -0.0007 H       1  LIG1        0.0227
     26 H          -3.4420    4.3642    0.8733 H       1  LIG1        0.0227
     27 H          -3.4421    4.3639   -0.8740 H       1  LIG1        0.0227
     28 C          -7.9061    4.5092   -0.0003 C.ar    1  LIG1        0.0939
     29 C          -7.6713    5.8482   -0.0006 C.ar    1  LIG1        0.0948
     30 C          -8.9435    6.5055    0.0008 C.ar    1  LIG1        0.1679
     31 C          -9.8998    5.5393    0.0002 C.ar    1  LIG1        0.1088
     32 N          -9.2691    4.3157   -0.0000 N.ar    1  LIG1       -0.3473
     33 H          -9.7254    3.4326   -0.0006 H       1  LIG1        0.1662
     34 N          -6.5050    6.4225   -0.0005 N.pl3   1  LIG1       -0.3534
     35 H          -5.8453    5.8372   -0.4719 H       1  LIG1        0.1425
     36 H          -6.5666    7.3022   -0.4719 H       1  LIG1        0.1425
     37 O          -9.1499    7.7891    0.0021 O.3     1  LIG1       -0.4911
     38 C          -7.8948    8.4743    0.0024 C.3     1  LIG1        0.0790
     39 H          -8.0652    9.5307    0.0033 H       1  LIG1        0.0660
     40 H          -7.3399    8.2019    0.8758 H       1  LIG1        0.0660
     41 H          -7.3401    8.2032   -0.8715 H       1  LIG1        0.0660
     42 C         -11.1963    5.6357    0.0008 C.ar    1  LIG1        0.0854
     43 C         -11.9991    6.7326    0.0008 C.ar    1  LIG1        0.0938
     44 C         -13.3546    6.2706    0.0028 C.ar    1  LIG1        0.0600
     45 C         -13.3203    4.9116    0.0021 C.ar    1  LIG1        0.0190
     46 N         -12.0009    4.5187    0.0013 N.ar    1  LIG1       -0.3573
     47 H         -11.6802    3.5778    0.0006 H       1  LIG1        0.1655
     48 H         -14.2880    4.0434    0.0030 H       1  LIG1        0.0820
     49 N         -11.2579    9.0642    0.0007 N.1     1  LIG1       -0.1908
     50 C         -11.6053    7.9715    0.0008 C.1     1  LIG1        0.1026
     51 C         -14.4231    7.0109    0.0044 C.1     1  LIG1       -0.0669
     52 C         -15.4105    7.6950    0.0060 C.1     1  LIG1       -0.1138
     53 H         -16.2901    8.3044    0.0073 H       1  LIG1        0.1232
@<TRIPOS>BOND
     1    27    24    1
     2    41    38    1
     3    36    34    1
     4    35    34    1
     5    20    16    1
     6     7     3    1
     7    25    24    1
     8    33    32    1
     9    29    34    1
    10    29    28   ar
    11    29    30   ar
    12    24    26    1
    13    15     5    1
    14    15    14   ar
    15    15    16   ar
    16    18    19   ar
    17    18    28    1
    18    18    17   ar
    19    23    17    1
    20    13    12    1
    21    12     4    1
    22     5     6   ar
    23     5     4   ar
    24    14    22    1
    25    14    19   ar
    26    16    17   ar
    27    22    21    3
    28    28    32   ar
    29     6     1   ar
    30     4     3   ar
    31    32    31   ar
    32     1     2   ar
    33     1     9    1
    34     3     2   ar
    35     2     8    1
    36    31    42    1
    37    31    30   ar
    38     9    10    3
    39    10    11    1
    40    47    46    1
    41    49    50    3
    42    50    43    1
    43    42    43   ar
    44    42    46   ar
    45    30    37    1
    46    43    44   ar
    47    46    45   ar
    48    37    38    1
    49    45    44   ar
    50    45    48    1
    51    38    39    1
    52    38    40    1
    53    44    51    1
    54    51    52    3
    55    52    53    1
