@<TRIPOS>MOLECULE
mol_data/noopt/geoms/mol2/6ef6ef6ef-6ef.out
 50 53 0 0 0
SMALL
GASTEIGER

@<TRIPOS>ATOM
      1 C          -4.5775   -2.0270    0.0001 C.ar    1  LIG1        0.1141
      2 C          -3.1706   -2.0270    0.0001 C.ar    1  LIG1       -0.0243
      3 C          -2.5039   -0.8004    0.0001 C.ar    1  LIG1       -0.0154
      4 C          -3.2580    0.3743   -0.0001 C.ar    1  LIG1        0.1429
      5 C          -4.6612    0.2715   -0.0003 C.ar    1  LIG1        0.1164
      6 N          -5.3207   -0.9034   -0.0001 N.ar    1  LIG1       -0.2347
      7 H          -1.4054   -0.7607   -0.0009 H       1  LIG1        0.0655
      8 H          -2.5135   -3.1487    0.0004 H       1  LIG1        0.0646
      9 C          -5.2431   -3.1437    0.0002 C.1     1  LIG1       -0.0498
     10 C          -5.8581   -4.1755    0.0003 C.1     1  LIG1       -0.1124
     11 H          -6.4059   -5.0946    0.0004 H       1  LIG1        0.1232
     12 O          -2.6846    1.5410   -0.0003 O.3     1  LIG1       -0.5046
     13 H          -3.3554    2.2278   -0.0003 H       1  LIG1        0.2922
     14 C          -6.8088    1.2233   -0.0003 C.ar    1  LIG1        0.1233
     15 C          -5.4065    1.3366   -0.0004 C.ar    1  LIG1        0.0413
     16 C          -4.8408    2.6129   -0.0003 C.ar    1  LIG1       -0.0061
     17 C          -5.6871    3.7231   -0.0003 C.ar    1  LIG1        0.1435
     18 C          -7.0774    3.5076   -0.0004 C.ar    1  LIG1        0.1164
     19 N          -7.6401    2.2834   -0.0003 N.ar    1  LIG1       -0.2340
     20 H          -3.7491    2.7410   -0.0014 H       1  LIG1        0.0662
     21 C          -7.3823    0.0566   -0.0003 C.1     1  LIG1       -0.0491
     22 C          -7.9122   -1.0214   -0.0003 C.1     1  LIG1       -0.1124
     23 H          -8.3842   -1.9816   -0.0003 H       1  LIG1        0.1232
     24 O          -5.2095    4.9322   -0.0004 O.3     1  LIG1       -0.5046
     25 H          -5.9335    5.5627   -0.0004 H       1  LIG1        0.2922
     26 C          -7.4241    5.8310   -0.0000 C.ar    1  LIG1        0.1233
     27 C          -7.9061    4.5092   -0.0003 C.ar    1  LIG1        0.0413
     28 C          -9.2869    4.3031   -0.0001 C.ar    1  LIG1       -0.0061
     29 C         -10.1321    5.4140    0.0002 C.ar    1  LIG1        0.1435
     30 C          -9.5548    6.6971    0.0002 C.ar    1  LIG1        0.1164
     31 N          -8.2251    6.9141    0.0002 N.ar    1  LIG1       -0.2340
     32 H          -9.7005    3.2847   -0.0012 H       1  LIG1        0.0662
     33 C          -6.1470    6.0737   -0.0001 C.1     1  LIG1       -0.0491
     34 C          -4.9669    6.2980   -0.0002 C.1     1  LIG1       -0.1124
     35 H          -3.9157    6.4978   -0.0003 H       1  LIG1        0.1232
     36 O         -11.4247    5.2750    0.0002 O.3     1  LIG1       -0.5046
     37 H         -11.6466    4.3410    0.0002 H       1  LIG1        0.2922
     38 C         -11.7025    7.6489    0.0008 C.ar    1  LIG1        0.1226
     39 C         -10.3001    7.7622    0.0005 C.ar    1  LIG1        0.0412
     40 C          -9.7344    9.0385    0.0008 C.ar    1  LIG1       -0.0067
     41 C         -10.5807   10.1487    0.0012 C.ar    1  LIG1        0.1356
     42 C         -11.9710    9.9332    0.0013 C.ar    1  LIG1        0.0704
     43 N         -12.5338    8.7090    0.0012 N.ar    1  LIG1       -0.2424
     44 H          -8.6427    9.1666   -0.0004 H       1  LIG1        0.0662
     45 H         -12.7997   10.9348    0.0018 H       1  LIG1        0.0867
     46 C         -12.2760    6.4822    0.0006 C.1     1  LIG1       -0.0491
     47 C         -12.8058    5.4042    0.0004 C.1     1  LIG1       -0.1124
     48 H         -13.2779    4.4439    0.0003 H       1  LIG1        0.1232
     49 O         -10.1031   11.3578    0.0014 O.3     1  LIG1       -0.5052
     50 H         -10.8271   11.9883    0.0014 H       1  LIG1        0.2922
@<TRIPOS>BOND
     1    20    16    1
     2    32    28    1
     3     7     3    1
     4    44    40    1
     5    15     5    1
     6    15    14   ar
     7    15    16   ar
     8    25    24    1
     9    18    19   ar
    10    18    27    1
    11    18    17   ar
    12    24    17    1
    13    13    12    1
    14     5     6   ar
    15     5     4   ar
    16    12     4    1
    17    14    21    1
    18    14    19   ar
    19    16    17   ar
    20    21    22    3
    21    22    23    1
    22    27    28   ar
    23    27    26   ar
    24    35    34    1
    25    34    33    3
    26    33    26    1
    27     6     1   ar
    28     4     3   ar
    29    28    29   ar
    30    26    31   ar
    31     1     2   ar
    32     1     9    1
    33     3     2   ar
    34     2     8    1
    35    29    36    1
    36    29    30   ar
    37    36    37    1
    38    30    31   ar
    39    30    39    1
    40     9    10    3
    41    48    47    1
    42    10    11    1
    43    47    46    3
    44    39    38   ar
    45    39    40   ar
    46    46    38    1
    47    38    43   ar
    48    40    41   ar
    49    43    42   ar
    50    41    42   ar
    51    41    49    1
    52    42    45    1
    53    49    50    1
