@<TRIPOS>MOLECULE
mol_data/noopt/geoms/mol2/6ef6ef-4ef6ef.out
 51 54 0 0 0
SMALL
GASTEIGER

@<TRIPOS>ATOM
      1 C          -4.5775   -2.0270    0.0001 C.ar    1  LIG1        0.1141
      2 C          -3.1706   -2.0270    0.0001 C.ar    1  LIG1       -0.0243
      3 C          -2.5039   -0.8004    0.0001 C.ar    1  LIG1       -0.0154
      4 C          -3.2580    0.3743   -0.0001 C.ar    1  LIG1        0.1429
      5 C          -4.6612    0.2715   -0.0003 C.ar    1  LIG1        0.1164
      6 N          -5.3207   -0.9034   -0.0001 N.ar    1  LIG1       -0.2347
      7 H          -1.4054   -0.7607   -0.0009 H       1  LIG1        0.0655
      8 H          -2.5135   -3.1487    0.0004 H       1  LIG1        0.0646
      9 C          -5.2431   -3.1437    0.0002 C.1     1  LIG1       -0.0498
     10 C          -5.8581   -4.1755    0.0003 C.1     1  LIG1       -0.1124
     11 H          -6.4059   -5.0946    0.0004 H       1  LIG1        0.1232
     12 O          -2.6846    1.5410   -0.0003 O.3     1  LIG1       -0.5046
     13 H          -3.3554    2.2278   -0.0003 H       1  LIG1        0.2922
     14 C          -4.8196    2.6153   -0.0003 C.ar    1  LIG1        0.1233
     15 C          -5.4065    1.3366   -0.0004 C.ar    1  LIG1        0.0413
     16 C          -6.7994    1.2424   -0.0003 C.ar    1  LIG1       -0.0061
     17 C          -7.5524    2.4178   -0.0003 C.ar    1  LIG1        0.1435
     18 C          -6.8736    3.6502   -0.0004 C.ar    1  LIG1        0.1149
     19 N          -5.5307    3.7594   -0.0003 N.ar    1  LIG1       -0.2341
     20 H          -7.2937    0.2606   -0.0014 H       1  LIG1        0.0662
     21 C          -3.5271    2.7543   -0.0003 C.1     1  LIG1       -0.0491
     22 C          -2.3328    2.8828   -0.0002 C.1     1  LIG1       -0.1124
     23 H          -1.2689    2.9973   -0.0002 H       1  LIG1        0.1232
     24 O          -8.8520    2.3834   -0.0004 O.3     1  LIG1       -0.5046
     25 H          -9.1484    1.4703   -0.0004 H       1  LIG1        0.2922
     26 C          -6.8310    5.9958    0.0005 C.ar    1  LIG1        0.0348
     27 C          -7.5886    7.1830    0.0022 C.ar    1  LIG1       -0.0344
     28 C          -7.5307    4.7718   -0.0003 C.ar    1  LIG1        0.0228
     29 C          -8.9814    7.1551    0.0023 C.ar    1  LIG1        0.0275
     30 H          -7.0688    8.1385    0.0030 H       1  LIG1        0.0637
     31 C          -8.9211    4.7434   -0.0001 C.ar    1  LIG1       -0.0091
     32 C          -9.6560    5.9336    0.0011 C.ar    1  LIG1        0.1253
     33 H          -9.4376    3.7869   -0.0006 H       1  LIG1        0.0661
     34 C          -5.5341    6.0859    0.0002 C.1     1  LIG1       -0.0690
     35 C          -4.3358    6.1691   -0.0002 C.1     1  LIG1       -0.1139
     36 H          -3.2684    6.2432   -0.0005 H       1  LIG1        0.1232
     37 O         -10.9556    5.9008    0.0014 O.3     1  LIG1       -0.5061
     38 H         -11.2531    4.9880    0.0015 H       1  LIG1        0.2922
     39 C         -11.0562    8.2567    0.0047 C.ar    1  LIG1        0.1211
     40 C          -9.6493    8.2703    0.0037 C.ar    1  LIG1        0.0229
     41 C          -8.9946    9.5034    0.0047 C.ar    1  LIG1       -0.0082
     42 C          -9.7600   10.6707    0.0063 C.ar    1  LIG1        0.1355
     43 C         -11.1621   10.5543    0.0069 C.ar    1  LIG1        0.0704
     44 N         -11.8102    9.3730    0.0062 N.ar    1  LIG1       -0.2425
     45 H          -7.8965    9.5537    0.0030 H       1  LIG1        0.0661
     46 H         -11.9177   11.6121    0.0085 H       1  LIG1        0.0867
     47 C         -11.7109    7.1336    0.0040 C.1     1  LIG1       -0.0492
     48 C         -12.3159    6.0959    0.0033 C.1     1  LIG1       -0.1124
     49 H         -12.8547    5.1715    0.0027 H       1  LIG1        0.1232
     50 O          -9.1979   11.8429    0.0071 O.3     1  LIG1       -0.5052
     51 H          -9.8754   12.5231    0.0072 H       1  LIG1        0.2922
@<TRIPOS>BOND
     1    20    16    1
     2     7     3    1
     3    33    31    1
     4    36    35    1
     5    25    24    1
     6    15    16   ar
     7    15     5    1
     8    15    14   ar
     9    24    17    1
    10    18    17   ar
    11    18    28    1
    12    18    19   ar
    13    13    12    1
    14    16    17   ar
    15     5     6   ar
    16     5     4   ar
    17    12     4    1
    18    28    31   ar
    19    28    26   ar
    20    14    19   ar
    21    14    21    1
    22    21    22    3
    23    22    23    1
    24    35    34    3
    25     6     1   ar
    26     4     3   ar
    27    31    32   ar
    28     1     2   ar
    29     1     9    1
    30     3     2   ar
    31     2     8    1
    32    34    26    1
    33     9    10    3
    34    10    11    1
    35    26    27   ar
    36    32    37    1
    37    32    29   ar
    38    37    38    1
    39    27    29   ar
    40    27    30    1
    41    29    40    1
    42    49    48    1
    43    45    41    1
    44    48    47    3
    45    40    39   ar
    46    40    41   ar
    47    47    39    1
    48    39    44   ar
    49    41    42   ar
    50    44    43   ar
    51    42    43   ar
    52    42    50    1
    53    43    46    1
    54    50    51    1
