@<TRIPOS>MOLECULE
mol_data/noopt/geoms/mol2/6ef6ef6ef.out
 38 40 0 0 0
SMALL
GASTEIGER

@<TRIPOS>ATOM
      1 C          -4.5775   -2.0270    0.0001 C.ar    1  LIG1        0.1141
      2 C          -3.1706   -2.0270    0.0001 C.ar    1  LIG1       -0.0243
      3 C          -2.5039   -0.8004    0.0001 C.ar    1  LIG1       -0.0154
      4 C          -3.2580    0.3743   -0.0001 C.ar    1  LIG1        0.1429
      5 C          -4.6612    0.2715   -0.0003 C.ar    1  LIG1        0.1164
      6 N          -5.3207   -0.9034   -0.0001 N.ar    1  LIG1       -0.2347
      7 H          -1.4054   -0.7607   -0.0009 H       1  LIG1        0.0655
      8 H          -2.5135   -3.1487    0.0004 H       1  LIG1        0.0646
      9 C          -5.2431   -3.1437    0.0002 C.1     1  LIG1       -0.0498
     10 C          -5.8581   -4.1755    0.0003 C.1     1  LIG1       -0.1124
     11 H          -6.4059   -5.0946    0.0004 H       1  LIG1        0.1232
     12 O          -2.6846    1.5410   -0.0003 O.3     1  LIG1       -0.5046
     13 H          -3.3554    2.2278   -0.0003 H       1  LIG1        0.2922
     14 C          -6.8088    1.2233   -0.0003 C.ar    1  LIG1        0.1233
     15 C          -5.4065    1.3366   -0.0004 C.ar    1  LIG1        0.0413
     16 C          -4.8408    2.6129   -0.0003 C.ar    1  LIG1       -0.0061
     17 C          -5.6871    3.7231   -0.0003 C.ar    1  LIG1        0.1435
     18 C          -7.0774    3.5076   -0.0004 C.ar    1  LIG1        0.1164
     19 N          -7.6401    2.2834   -0.0003 N.ar    1  LIG1       -0.2340
     20 H          -3.7491    2.7410   -0.0014 H       1  LIG1        0.0662
     21 C          -7.3823    0.0566   -0.0003 C.1     1  LIG1       -0.0491
     22 C          -7.9122   -1.0214   -0.0003 C.1     1  LIG1       -0.1124
     23 H          -8.3842   -1.9816   -0.0003 H       1  LIG1        0.1232
     24 O          -5.2095    4.9322   -0.0004 O.3     1  LIG1       -0.5046
     25 H          -5.9335    5.5627   -0.0004 H       1  LIG1        0.2922
     26 C          -9.2948    4.2833   -0.0001 C.ar    1  LIG1        0.1226
     27 C          -7.9061    4.5092   -0.0003 C.ar    1  LIG1        0.0412
     28 C          -7.4450    5.8270   -0.0001 C.ar    1  LIG1       -0.0067
     29 C          -8.3780    6.8653    0.0002 C.ar    1  LIG1        0.1356
     30 C          -9.7465    6.5385    0.0002 C.ar    1  LIG1        0.0704
     31 N         -10.2087    5.2730    0.0002 N.ar    1  LIG1       -0.2424
     32 H          -6.3672    6.0425   -0.0012 H       1  LIG1        0.0662
     33 H         -10.6531    7.4701    0.0005 H       1  LIG1        0.0867
     34 C          -9.7724    3.0742   -0.0002 C.1     1  LIG1       -0.0491
     35 C         -10.2137    1.9570   -0.0002 C.1     1  LIG1       -0.1124
     36 H         -10.6069    0.9619   -0.0003 H       1  LIG1        0.1232
     37 O          -7.9993    8.1090    0.0002 O.3     1  LIG1       -0.5052
     38 H          -8.7717    8.6791    0.0002 H       1  LIG1        0.2922
@<TRIPOS>BOND
     1    20    16    1
     2    32    28    1
     3     7     3    1
     4    15     5    1
     5    15    14   ar
     6    15    16   ar
     7    25    24    1
     8    18    19   ar
     9    18    27    1
    10    18    17   ar
    11    24    17    1
    12    13    12    1
    13    36    35    1
    14    12     4    1
    15     5     6   ar
    16     5     4   ar
    17    14    21    1
    18    14    19   ar
    19    16    17   ar
    20    21    22    3
    21    22    23    1
    22    27    26   ar
    23    27    28   ar
    24    35    34    3
    25    34    26    1
    26     6     1   ar
    27     4     3   ar
    28    26    31   ar
    29    28    29   ar
    30     1     2   ar
    31     1     9    1
    32     3     2   ar
    33     2     8    1
    34    31    30   ar
    35    30    29   ar
    36    30    33    1
    37    29    37    1
    38    37    38    1
    39     9    10    3
    40    10    11    1
