@<TRIPOS>MOLECULE
mol_data/noopt/geoms/mol2/6ef6ef-6ef-6ef.out
 50 53 0 0 0
SMALL
GASTEIGER

@<TRIPOS>ATOM
      1 C          -4.5775   -2.0270    0.0001 C.ar    1  LIG1        0.1141
      2 C          -3.1706   -2.0270    0.0001 C.ar    1  LIG1       -0.0243
      3 C          -2.5039   -0.8004    0.0001 C.ar    1  LIG1       -0.0154
      4 C          -3.2580    0.3743   -0.0001 C.ar    1  LIG1        0.1429
      5 C          -4.6612    0.2715   -0.0003 C.ar    1  LIG1        0.1164
      6 N          -5.3207   -0.9034   -0.0001 N.ar    1  LIG1       -0.2347
      7 H          -1.4054   -0.7607   -0.0009 H       1  LIG1        0.0655
      8 H          -2.5135   -3.1487    0.0004 H       1  LIG1        0.0646
      9 C          -5.2431   -3.1437    0.0002 C.1     1  LIG1       -0.0498
     10 C          -5.8581   -4.1755    0.0003 C.1     1  LIG1       -0.1124
     11 H          -6.4059   -5.0946    0.0004 H       1  LIG1        0.1232
     12 O          -2.6846    1.5410   -0.0003 O.3     1  LIG1       -0.5046
     13 H          -3.3554    2.2278   -0.0003 H       1  LIG1        0.2922
     14 C          -4.8196    2.6153   -0.0003 C.ar    1  LIG1        0.1233
     15 C          -5.4065    1.3366   -0.0004 C.ar    1  LIG1        0.0413
     16 C          -6.7994    1.2424   -0.0003 C.ar    1  LIG1       -0.0061
     17 C          -7.5524    2.4178   -0.0003 C.ar    1  LIG1        0.1435
     18 C          -6.8736    3.6502   -0.0004 C.ar    1  LIG1        0.1164
     19 N          -5.5307    3.7594   -0.0003 N.ar    1  LIG1       -0.2340
     20 H          -7.2937    0.2606   -0.0014 H       1  LIG1        0.0662
     21 C          -3.5271    2.7543   -0.0003 C.1     1  LIG1       -0.0491
     22 C          -2.3328    2.8828   -0.0002 C.1     1  LIG1       -0.1124
     23 H          -1.2689    2.9973   -0.0002 H       1  LIG1        0.1232
     24 O          -8.8520    2.3834   -0.0004 O.3     1  LIG1       -0.5046
     25 H          -9.1484    1.4703   -0.0004 H       1  LIG1        0.2922
     26 C          -6.8427    5.9991   -0.0000 C.ar    1  LIG1        0.1233
     27 C          -7.5307    4.7719   -0.0003 C.ar    1  LIG1        0.0413
     28 C          -8.9267    4.7902   -0.0001 C.ar    1  LIG1       -0.0061
     29 C          -9.5826    6.0224    0.0002 C.ar    1  LIG1        0.1435
     30 C          -8.8067    7.1961    0.0002 C.ar    1  LIG1        0.1164
     31 N          -7.4594    7.1968    0.0002 N.ar    1  LIG1       -0.2340
     32 H          -9.4985    3.8514   -0.0012 H       1  LIG1        0.0662
     33 C          -5.5432    6.0336   -0.0001 C.1     1  LIG1       -0.0491
     34 C          -4.3424    6.0655   -0.0002 C.1     1  LIG1       -0.1124
     35 H          -3.2728    6.0939   -0.0003 H       1  LIG1        0.1232
     36 O         -10.8807    6.0928    0.0002 O.3     1  LIG1       -0.5046
     37 H         -11.2497    5.2065    0.0002 H       1  LIG1        0.2922
     38 C         -10.7737    8.4804    0.0008 C.ar    1  LIG1        0.1226
     39 C          -9.3714    8.3671    0.0005 C.ar    1  LIG1        0.0412
     40 C          -8.6080    9.5360    0.0008 C.ar    1  LIG1       -0.0067
     41 C          -9.2650   10.7676    0.0012 C.ar    1  LIG1        0.1356
     42 C         -10.6720   10.7782    0.0013 C.ar    1  LIG1        0.0704
     43 N         -11.4240    9.6602    0.0012 N.ar    1  LIG1       -0.2424
     44 H          -7.5099    9.4871   -0.0004 H       1  LIG1        0.0662
     45 H         -11.3291   11.8999    0.0018 H       1  LIG1        0.0867
     46 C         -11.5271    7.4210    0.0006 C.1     1  LIG1       -0.0491
     47 C         -12.2232    6.4420    0.0004 C.1     1  LIG1       -0.1124
     48 H         -12.8433    5.5700    0.0003 H       1  LIG1        0.1232
     49 O          -8.5995   11.8844    0.0014 O.3     1  LIG1       -0.5052
     50 H          -9.2128   12.6229    0.0014 H       1  LIG1        0.2922
@<TRIPOS>BOND
     1    20    16    1
     2    32    28    1
     3     7     3    1
     4    44    40    1
     5    25    24    1
     6    15    16   ar
     7    15     5    1
     8    15    14   ar
     9    24    17    1
    10    18    17   ar
    11    18    27    1
    12    18    19   ar
    13    13    12    1
    14    16    17   ar
    15     5     6   ar
    16     5     4   ar
    17    12     4    1
    18    27    28   ar
    19    27    26   ar
    20    14    19   ar
    21    14    21    1
    22    35    34    1
    23    21    22    3
    24    22    23    1
    25    34    33    3
    26    33    26    1
    27     6     1   ar
    28     4     3   ar
    29    28    29   ar
    30    26    31   ar
    31     1     2   ar
    32     1     9    1
    33     3     2   ar
    34     2     8    1
    35    29    30   ar
    36    29    36    1
    37    30    31   ar
    38    30    39    1
    39    36    37    1
    40     9    10    3
    41    48    47    1
    42    10    11    1
    43    47    46    3
    44    39    38   ar
    45    39    40   ar
    46    46    38    1
    47    38    43   ar
    48    40    41   ar
    49    43    42   ar
    50    41    42   ar
    51    41    49    1
    52    42    45    1
    53    49    50    1
