@<TRIPOS>MOLECULE
mol_data/noopt/geoms/mol2/6ef6eh-4fd13id-.out
 51 53 0 0 0
SMALL
GASTEIGER

@<TRIPOS>ATOM
      1 C          -4.5775   -2.0270    0.0001 C.ar    1  LIG1        0.1141
      2 C          -3.1706   -2.0270    0.0001 C.ar    1  LIG1       -0.0243
      3 C          -2.5039   -0.8004    0.0001 C.ar    1  LIG1       -0.0154
      4 C          -3.2580    0.3743   -0.0001 C.ar    1  LIG1        0.1429
      5 C          -4.6612    0.2715   -0.0003 C.ar    1  LIG1        0.1163
      6 N          -5.3207   -0.9034   -0.0001 N.ar    1  LIG1       -0.2347
      7 H          -1.4054   -0.7607   -0.0009 H       1  LIG1        0.0655
      8 H          -2.5135   -3.1487    0.0004 H       1  LIG1        0.0646
      9 C          -5.2431   -3.1437    0.0002 C.1     1  LIG1       -0.0498
     10 C          -5.8581   -4.1755    0.0003 C.1     1  LIG1       -0.1124
     11 H          -6.4059   -5.0946    0.0004 H       1  LIG1        0.1232
     12 O          -2.6846    1.5410   -0.0003 O.3     1  LIG1       -0.5046
     13 H          -3.3554    2.2278   -0.0003 H       1  LIG1        0.2922
     14 C          -6.8087    1.2234   -0.0215 C.ar    1  LIG1        0.1232
     15 C          -5.4065    1.3366   -0.0004 C.ar    1  LIG1        0.0396
     16 C          -4.8409    2.6128    0.0206 C.ar    1  LIG1       -0.0253
     17 C          -5.6872    3.7230    0.0196 C.ar    1  LIG1        0.0710
     18 C          -7.0774    3.5076   -0.0025 C.ar    1  LIG1        0.0952
     19 N          -7.6400    2.2835   -0.0227 N.ar    1  LIG1       -0.2358
     20 H          -3.7493    2.7408    0.0363 H       1  LIG1        0.0645
     21 C          -7.3820    0.0568   -0.0413 C.1     1  LIG1       -0.0491
     22 C          -7.9118   -1.0211   -0.0597 C.1     1  LIG1       -0.1124
     23 H          -8.3837   -1.9813   -0.0760 H       1  LIG1        0.1232
     24 N          -5.2098    4.9320    0.0384 N.pl3   1  LIG1       -0.2644
     25 H          -4.3254    4.9484   -0.4281 H       1  LIG1        0.1700
     26 H          -5.8442    5.5482   -0.4282 H       0  HOH0        0.2052
     27 C          -7.4120    5.8297   -0.0044 C.ar    1  LIG1       -0.0073
     28 C          -8.3503    6.8798   -0.0048 C.ar    1  LIG1       -0.0430
     29 C          -7.9061    4.5092   -0.0043 C.ar    1  LIG1        0.0112
     30 C          -9.7206    6.6286   -0.0056 C.ar    1  LIG1        0.0165
     31 H          -7.9907    7.9063   -0.0047 H       1  LIG1        0.0631
     32 C          -9.2739    4.2579   -0.0050 C.ar    1  LIG1       -0.0339
     33 C         -10.1903    5.3146   -0.0058 C.ar    1  LIG1        0.0615
     34 H          -9.6300    3.2308   -0.0048 H       1  LIG1        0.0637
     35 O          -6.1463    6.1268   -0.0040 O.3     2  HOH2       -0.4105
     36 H          -6.0412    7.0810   -0.0039 H       0  HOH0        0.2052
     37 N         -12.5945    4.8610   -0.0068 N.1     1  LIG1       -0.1908
     38 C         -11.4677    5.0736   -0.0064 C.1     1  LIG1        0.0998
     39 C         -10.5589    7.6221   -0.0060 C.ar    1  LIG1        0.0519
     40 C         -10.3372    8.9632    0.0100 C.ar    1  LIG1       -0.0078
     41 C         -11.6157    9.6082    0.0018 C.ar    1  LIG1        0.0725
     42 C         -12.5624    8.6330   -0.0205 C.ar    1  LIG1        0.0199
     43 N         -11.9198    7.4155   -0.0249 N.ar    1  LIG1       -0.3592
     44 H         -12.3674    6.5281   -0.0400 H       1  LIG1        0.1654
     45 H         -13.8597    8.7168   -0.0353 H       1  LIG1        0.0820
     46 C          -9.1764    9.5488    0.0305 C.3     1  LIG1       -0.0365
     47 H          -9.2585   10.4859    0.5404 H       1  LIG1        0.0279
     48 H          -8.8438    9.7167   -0.9726 H       1  LIG1        0.0279
     49 H          -8.4716    8.9258    0.5404 H       1  LIG1        0.0279
     50 N         -12.0277   12.0198    0.0232 N.1     1  LIG1       -0.1908
     51 C         -11.8346   10.8896    0.0132 C.1     1  LIG1        0.1009
@<TRIPOS>BOND
     1    48    46    1
     2    26    35    1
     3    25    24    1
     4    23    22    1
     5    22    21    3
     6    21    14    1
     7    44    43    1
     8    45    42    1
     9    43    42   ar
    10    43    39   ar
    11    19    14   ar
    12    19    18   ar
    13    14    15   ar
    14    42    41   ar
    15    37    38    3
    16    38    33    1
    17    39    30    1
    18    39    40   ar
    19    33    30   ar
    20    33    32   ar
    21    30    28   ar
    22    32    34    1
    23    32    29   ar
    24    28    31    1
    25    28    27   ar
    26    27    29   ar
    27    29    18    1
    28    35    36    1
    29    18    17   ar
    30     7     3    1
    31    15     5    1
    32    15    16   ar
    33    13    12    1
    34    12     4    1
    35     5     6   ar
    36     5     4   ar
    37     6     1   ar
    38     4     3   ar
    39     1     2   ar
    40     1     9    1
    41     2     3   ar
    42     2     8    1
    43     9    10    3
    44    10    11    1
    45    41    40   ar
    46    41    51    1
    47    40    46    1
    48    51    50    3
    49    17    16   ar
    50    17    24    1
    51    16    20    1
    52    46    49    1
    53    46    47    1
