@<TRIPOS>MOLECULE
mol_data/noopt/geoms/mol2/6ef6ai(110)12dd(210)13hf(200).out
 46 49 0 0 0
SMALL
GASTEIGER

@<TRIPOS>ATOM
      1 C          -4.5775   -2.0270    0.0001 C.ar    1  LIG1        0.1141
      2 C          -3.1706   -2.0270    0.0001 C.ar    1  LIG1       -0.0243
      3 C          -2.5039   -0.8004    0.0001 C.ar    1  LIG1       -0.0154
      4 C          -3.2580    0.3743   -0.0001 C.ar    1  LIG1        0.1428
      5 C          -4.6612    0.2715   -0.0003 C.ar    1  LIG1        0.1151
      6 N          -5.3207   -0.9034   -0.0001 N.ar    1  LIG1       -0.2347
      7 H          -1.4054   -0.7607   -0.0009 H       1  LIG1        0.0655
      8 H          -2.5135   -3.1487    0.0004 H       1  LIG1        0.0646
      9 C          -5.2431   -3.1437    0.0002 C.1     1  LIG1       -0.0498
     10 C          -5.8581   -4.1755    0.0003 C.1     1  LIG1       -0.1124
     11 H          -6.4059   -5.0946    0.0004 H       1  LIG1        0.1232
     12 O          -2.6846    1.5410   -0.0003 O.3     1  LIG1       -0.5046
     13 H          -3.3554    2.2278   -0.0003 H       1  LIG1        0.2922
     14 C          -5.4739    2.1573   -1.1411 C.ar    1  LIG1        0.0377
     15 C          -5.4065    1.3366   -0.0004 C.ar    1  LIG1        0.0223
     16 C          -6.1555    1.6931    1.1225 C.ar    1  LIG1       -0.0459
     17 C          -6.9393    2.8470    1.0689 C.ar    1  LIG1       -0.0208
     18 C          -6.9408    3.6032   -0.1175 C.ar    1  LIG1        0.1102
     19 N          -6.2246    3.2738   -1.2102 N.ar    1  LIG1       -0.2509
     20 H          -6.1274    1.0769    2.0324 H       1  LIG1        0.0628
     21 H          -4.7949    1.8670   -2.2110 H       1  LIG1        0.0836
     22 C          -7.6546    3.2217    2.0881 C.3     1  LIG1       -0.0376
     23 H          -7.9059    2.3671    2.6809 H       1  LIG1        0.0278
     24 H          -8.5513    3.6913    1.7412 H       1  LIG1        0.0278
     25 H          -7.0952    3.9149    2.6809 H       1  LIG1        0.0278
     26 C          -7.6545    4.6852   -0.2161 C.ar    1  LIG1        0.1727
     27 C          -8.8968    5.0008   -0.7260 C.ar    1  LIG1        0.1170
     28 C          -9.0864    6.4198   -0.5080 C.ar    1  LIG1        0.1169
     29 C          -7.9469    6.8774    0.1210 C.ar    1  LIG1        0.1723
     30 O          -7.0491    5.8264    0.3120 O.2     1  LIG1       -0.4491
     31 N         -10.5019    3.4970   -1.7975 N.1     1  LIG1       -0.1907
     32 C          -9.7497    4.2018   -1.2953 C.1     1  LIG1        0.1043
     33 N         -11.0641    7.7093   -1.1499 N.1     1  LIG1       -0.1907
     34 C         -10.1373    7.1050   -0.8491 C.1     1  LIG1        0.1043
     35 C          -7.5308    8.0271    0.5626 C.ar    1  LIG1        0.1080
     36 C          -8.1332    9.2457    0.5538 C.ar    1  LIG1        0.0953
     37 C          -7.2312   10.1731    1.1677 C.ar    1  LIG1        0.1554
     38 C          -6.1180    9.4801    1.5263 C.ar    1  LIG1        0.0461
     39 N          -6.2970    8.1660    1.1573 N.ar    1  LIG1       -0.3537
     40 H          -5.6400    7.4335    1.2984 H       1  LIG1        0.1656
     41 H          -5.0280    9.8792    2.1116 H       1  LIG1        0.0845
     42 N          -9.3108    9.5158    0.0739 N.pl3   1  LIG1       -0.3534
     43 H          -9.2606   10.3420   -0.4872 H       1  LIG1        0.1425
     44 H          -9.6257    8.7504   -0.4873 H       1  LIG1        0.1425
     45 O          -7.4357   11.4439    1.3506 O.3     1  LIG1       -0.5035
     46 H          -8.3796   11.6133    1.3957 H       1  LIG1        0.2923
@<TRIPOS>BOND
     1    21    14    1
     2    31    32    3
     3    32    27    1
     4    19    14   ar
     5    19    18   ar
     6    33    34    3
     7    14    15   ar
     8    34    28    1
     9    27    28   ar
    10    27    26   ar
    11    28    29   ar
    12    44    42    1
    13    43    42    1
    14    26    18    1
    15    26    30   ar
    16    18    17   ar
    17     7     3    1
    18    15     5    1
    19    15    16   ar
    20    13    12    1
    21    12     4    1
    22     5     6   ar
    23     5     4   ar
    24     6     1   ar
    25     4     3   ar
    26     1     2   ar
    27     1     9    1
    28     3     2   ar
    29     2     8    1
    30     9    10    3
    31    10    11    1
    32    42    36    1
    33    29    30   ar
    34    29    35    1
    35    36    35   ar
    36    36    37   ar
    37    35    39   ar
    38    17    16   ar
    39    17    22    1
    40    16    20    1
    41    39    40    1
    42    39    38   ar
    43    37    45    1
    44    37    38   ar
    45    45    46    1
    46    38    41    1
    47    24    22    1
    48    22    25    1
    49    22    23    1
