@<TRIPOS>MOLECULE
mol_data/noopt/geoms/mol2/6ef6ef-12ai-12ea-.out
 45 48 0 0 0
SMALL
GASTEIGER

@<TRIPOS>ATOM
      1 C          -4.5775   -2.0270    0.0001 C.ar    1  LIG1        0.1141
      2 C          -3.1706   -2.0270    0.0001 C.ar    1  LIG1       -0.0243
      3 C          -2.5039   -0.8004    0.0001 C.ar    1  LIG1       -0.0154
      4 C          -3.2580    0.3743   -0.0001 C.ar    1  LIG1        0.1429
      5 C          -4.6612    0.2715   -0.0003 C.ar    1  LIG1        0.1164
      6 N          -5.3207   -0.9034   -0.0001 N.ar    1  LIG1       -0.2347
      7 H          -1.4054   -0.7607   -0.0009 H       1  LIG1        0.0655
      8 H          -2.5135   -3.1487    0.0004 H       1  LIG1        0.0646
      9 C          -5.2431   -3.1437    0.0002 C.1     1  LIG1       -0.0498
     10 C          -5.8581   -4.1755    0.0003 C.1     1  LIG1       -0.1124
     11 H          -6.4059   -5.0946    0.0004 H       1  LIG1        0.1232
     12 O          -2.6846    1.5410   -0.0003 O.3     1  LIG1       -0.5046
     13 H          -3.3554    2.2278   -0.0003 H       1  LIG1        0.2922
     14 C          -6.8087    1.2234   -0.0215 C.ar    1  LIG1        0.1234
     15 C          -5.4065    1.3366   -0.0004 C.ar    1  LIG1        0.0413
     16 C          -4.8409    2.6128    0.0206 C.ar    1  LIG1       -0.0060
     17 C          -5.6872    3.7230    0.0196 C.ar    1  LIG1        0.1465
     18 C          -7.0774    3.5076   -0.0025 C.ar    1  LIG1        0.1486
     19 N          -7.6400    2.2835   -0.0227 N.ar    1  LIG1       -0.2310
     20 H          -3.7493    2.7408    0.0363 H       1  LIG1        0.0662
     21 C          -7.3820    0.0568   -0.0413 C.1     1  LIG1       -0.0491
     22 C          -7.9118   -1.0211   -0.0597 C.1     1  LIG1       -0.1124
     23 H          -8.3837   -1.9813   -0.0760 H       1  LIG1        0.1232
     24 O          -5.2098    4.9320    0.0384 O.3     1  LIG1       -0.5045
     25 H          -5.9338    5.5624    0.0430 H       1  LIG1        0.2922
     26 C          -7.9061    4.5092   -0.0043 C.ar    1  LIG1        0.1578
     27 C          -7.7876    5.8836    0.0092 C.ar    1  LIG1       -0.0106
     28 C          -9.1342    6.4161   -0.0031 C.ar    1  LIG1       -0.0009
     29 C          -9.9865    5.3314   -0.0235 C.ar    1  LIG1        0.1747
     30 O          -9.2530    4.1444   -0.0247 O.2     1  LIG1       -0.4498
     31 H          -6.6951    6.5879    0.0293 H       1  LIG1        0.0659
     32 C          -9.4504    7.6774    0.0039 C.3     1  LIG1       -0.0360
     33 H         -10.3839    7.8083    0.5102 H       1  LIG1        0.0279
     34 H          -9.5385    8.0286   -1.0030 H       1  LIG1        0.0279
     35 H          -8.6890    8.2331    0.5101 H       1  LIG1        0.0279
     36 C         -11.2759    5.1667   -0.0412 C.ar    1  LIG1        0.1852
     37 C         -12.3738    6.0019   -0.0546 C.ar    1  LIG1        0.0734
     38 C         -13.5438    5.1488   -0.0719 C.ar    1  LIG1       -0.0077
     39 C         -13.0829    3.8483   -0.0680 C.ar    1  LIG1        0.0939
     40 O         -11.6879    3.8334   -0.0493 O.2     1  LIG1       -0.4586
     41 H         -13.6333    2.6706   -0.0775 H       1  LIG1        0.1030
     42 C         -12.3847    7.3018   -0.0524 C.1     1  LIG1       -0.0658
     43 C         -12.3948    8.5030   -0.0504 C.1     1  LIG1       -0.1138
     44 H         -12.4038    9.5730   -0.0486 H       1  LIG1        0.1232
     45 H         -14.7782    5.5560   -0.0879 H       1  LIG1        0.0661
@<TRIPOS>BOND
     1    34    32    1
     2    45    38    1
     3    41    39    1
     4    23    22    1
     5    38    39   ar
     6    38    37   ar
     7    39    40   ar
     8    22    21    3
     9    37    42    1
    10    37    36   ar
    11    42    43    3
    12    43    44    1
    13    40    36   ar
    14    21    14    1
    15    36    29    1
    16    30    29   ar
    17    30    26   ar
    18    29    28   ar
    19    19    14   ar
    20    19    18   ar
    21    14    15   ar
    22    26    18    1
    23    26    27   ar
    24    28    32    1
    25    28    27   ar
    26    18    17   ar
    27     7     3    1
    28    15     5    1
    29    15    16   ar
    30    13    12    1
    31    12     4    1
    32     5     4   ar
    33     5     6   ar
    34     4     3   ar
    35     6     1   ar
    36     2     3   ar
    37     2     1   ar
    38     2     8    1
    39     1     9    1
    40     9    10    3
    41    10    11    1
    42    32    35    1
    43    32    33    1
    44    27    31    1
    45    17    16   ar
    46    17    24    1
    47    16    20    1
    48    24    25    1
