@<TRIPOS>MOLECULE
mol_data/noopt/geoms/mol2/6ef6ef.out
 26 27 0 0 0
SMALL
GASTEIGER

@<TRIPOS>ATOM
      1 C          -4.5775   -2.0270    0.0001 C.ar    1  LIG1        0.1141
      2 C          -3.1706   -2.0270    0.0001 C.ar    1  LIG1       -0.0243
      3 C          -2.5039   -0.8004    0.0001 C.ar    1  LIG1       -0.0154
      4 C          -3.2580    0.3743   -0.0001 C.ar    1  LIG1        0.1429
      5 C          -4.6612    0.2715   -0.0003 C.ar    1  LIG1        0.1164
      6 N          -5.3207   -0.9034   -0.0001 N.ar    1  LIG1       -0.2347
      7 H          -1.4054   -0.7607   -0.0009 H       1  LIG1        0.0655
      8 H          -2.5135   -3.1487    0.0004 H       1  LIG1        0.0646
      9 C          -5.2431   -3.1437    0.0002 C.1     1  LIG1       -0.0498
     10 C          -5.8581   -4.1755    0.0003 C.1     1  LIG1       -0.1124
     11 H          -6.4059   -5.0946    0.0004 H       1  LIG1        0.1232
     12 O          -2.6846    1.5410   -0.0003 O.3     1  LIG1       -0.5046
     13 H          -3.3554    2.2278   -0.0003 H       1  LIG1        0.2922
     14 C          -6.8088    1.2233   -0.0003 C.ar    1  LIG1        0.1226
     15 C          -5.4065    1.3366   -0.0004 C.ar    1  LIG1        0.0412
     16 C          -4.8408    2.6129   -0.0003 C.ar    1  LIG1       -0.0067
     17 C          -5.6871    3.7231   -0.0003 C.ar    1  LIG1        0.1356
     18 C          -7.0774    3.5076   -0.0004 C.ar    1  LIG1        0.0704
     19 N          -7.6401    2.2834   -0.0003 N.ar    1  LIG1       -0.2424
     20 H          -3.7491    2.7410   -0.0014 H       1  LIG1        0.0662
     21 H          -7.9061    4.5092   -0.0003 H       1  LIG1        0.0867
     22 C          -7.3823    0.0566   -0.0003 C.1     1  LIG1       -0.0491
     23 C          -7.9122   -1.0214   -0.0003 C.1     1  LIG1       -0.1124
     24 H          -8.3842   -1.9816   -0.0003 H       1  LIG1        0.1232
     25 O          -5.2095    4.9322   -0.0004 O.3     1  LIG1       -0.5052
     26 H          -5.9335    5.5627   -0.0004 H       1  LIG1        0.2922
@<TRIPOS>BOND
     1    20    16    1
     2     7     3    1
     3    15     5    1
     4    15    14   ar
     5    15    16   ar
     6    26    25    1
     7    18    19   ar
     8    18    21    1
     9    18    17   ar
    10    25    17    1
    11    13    12    1
    12     5     6   ar
    13     5     4   ar
    14    12     4    1
    15    14    22    1
    16    14    19   ar
    17    16    17   ar
    18    22    23    3
    19    23    24    1
    20     6     1   ar
    21     4     3   ar
    22     1     2   ar
    23     1     9    1
    24     3     2   ar
    25     2     8    1
    26     9    10    3
    27    10    11    1
