@<TRIPOS>MOLECULE
mol_data/noopt/geoms/mol2/6eh13ie(250)4dh(50)13hf(240).out
 52 55 0 0 0
SMALL
GASTEIGER

@<TRIPOS>ATOM
      1 C          -4.5775   -2.0270    0.0001 C.ar    1  LIG1        0.1140
      2 C          -3.1706   -2.0270    0.0001 C.ar    1  LIG1       -0.0260
      3 C          -2.5039   -0.8004    0.0001 C.ar    1  LIG1       -0.0363
      4 C          -3.2580    0.3743   -0.0001 C.ar    1  LIG1        0.0524
      5 C          -4.6612    0.2715   -0.0003 C.ar    1  LIG1        0.1093
      6 N          -5.3207   -0.9034   -0.0001 N.ar    1  LIG1       -0.2351
      7 H          -1.4054   -0.7607   -0.0009 H       1  LIG1        0.0637
      8 H          -2.5135   -3.1487    0.0004 H       1  LIG1        0.0646
      9 C          -5.2431   -3.1437    0.0002 C.1     1  LIG1       -0.0498
     10 C          -5.8581   -4.1755    0.0003 C.1     1  LIG1       -0.1124
     11 H          -6.4059   -5.0946    0.0004 H       1  LIG1        0.1232
     12 N          -2.6846    1.5410   -0.0003 N.pl3   1  LIG1       -0.3563
     13 H          -1.8048    1.4799   -0.4718 H       1  LIG1        0.1424
     14 H          -3.2703    2.2002   -0.4718 H       1  LIG1        0.1424
     15 C          -5.4065    1.3366   -0.0004 C.ar    1  LIG1        0.0714
     16 C          -6.2243    1.8407   -0.9622 C.ar    1  LIG1       -0.0076
     17 C          -6.8095    3.0393   -0.4410 C.ar    1  LIG1        0.0535
     18 C          -6.3248    3.2140    0.8171 C.ar    1  LIG1        0.0641
     19 N          -5.4652    2.1741    1.0906 N.ar    1  LIG1       -0.3517
     20 H          -4.9665    2.0476    1.9412 H       1  LIG1        0.1660
     21 C          -6.4331    1.3271   -2.1384 C.3     1  LIG1       -0.0365
     22 H          -5.8528    0.4346   -2.2460 H       1  LIG1        0.0279
     23 H          -6.1467    2.0316   -2.8912 H       1  LIG1        0.0279
     24 H          -7.4715    1.0925   -2.2459 H       1  LIG1        0.0279
     25 C          -7.6497    3.8188   -1.0543 C.1     1  LIG1       -0.0673
     26 C          -8.4262    4.5391   -1.6211 C.1     1  LIG1       -0.1138
     27 H          -9.1178    5.1808   -2.1259 H       1  LIG1        0.1232
     28 C          -5.7704    4.2363    2.8546 C.ar    1  LIG1        0.0616
     29 C          -6.0640    5.2671    3.7681 C.ar    1  LIG1       -0.0328
     30 C          -6.5581    4.1500    1.6884 C.ar    1  LIG1        0.0186
     31 C          -7.0954    6.1734    3.5328 C.ar    1  LIG1        0.0221
     32 H          -5.4686    5.3518    4.6745 H       1  LIG1        0.0638
     33 C          -7.5879    5.0545    1.4530 C.ar    1  LIG1       -0.0300
     34 C          -7.8638    6.0719    2.3724 C.ar    1  LIG1        0.0345
     35 H          -8.1812    4.9670    0.5464 H       1  LIG1        0.0643
     36 N          -3.9357    2.7024    3.3712 N.1     1  LIG1       -0.1908
     37 C          -4.7955    3.4213    3.1291 C.1     1  LIG1        0.0998
     38 N          -8.8279    6.9144    2.1470 N.pl3   1  LIG1       -0.3574
     39 H          -8.4762    7.6915    1.6250 H       1  LIG1        0.1423
     40 H          -9.5508    6.4619    1.6250 H       1  LIG1        0.1423
     41 C          -7.3389    7.1130    4.3976 C.ar    1  LIG1        0.0729
     42 C          -8.1831    8.1764    4.3303 C.ar    1  LIG1        0.0923
     43 C          -8.0608    8.8981    5.5611 C.ar    1  LIG1        0.1553
     44 C          -7.1485    8.2430    6.3270 C.ar    1  LIG1        0.0460
     45 N          -6.7037    7.1498    5.6183 N.ar    1  LIG1       -0.3561
     46 H          -6.0312    6.4911    5.9377 H       1  LIG1        0.1655
     47 H          -6.7018    8.5080    7.5188 H       1  LIG1        0.0845
     48 N          -8.9564    8.4799    3.3303 N.pl3   1  LIG1       -0.3535
     49 H          -8.5187    9.1853    2.7727 H       1  LIG1        0.1425
     50 H          -9.1154    7.6653    2.7727 H       1  LIG1        0.1425
     51 O          -8.7023    9.9801    5.8893 O.3     1  LIG1       -0.5035
     52 H          -9.6388    9.7853    5.9701 H       1  LIG1        0.2923
@<TRIPOS>BOND
     1    23    21    1
     2    22    21    1
     3    24    21    1
     4    21    16    1
     5    27    26    1
     6    26    25    3
     7    25    17    1
     8    16    17   ar
     9    16    15   ar
    10    14    12    1
    11    13    12    1
    12    17    18   ar
    13     7     3    1
    14    15     5    1
    15    15    19   ar
    16     5     6   ar
    17     5     4   ar
    18    12     4    1
    19     6     1   ar
    20     4     3   ar
    21     1     2   ar
    22     1     9    1
    23     3     2   ar
    24     2     8    1
    25     9    10    3
    26    10    11    1
    27    35    33    1
    28    18    19   ar
    29    18    30    1
    30    19    20    1
    31    33    30   ar
    32    33    34   ar
    33    40    38    1
    34    39    38    1
    35    30    28   ar
    36    38    34    1
    37    34    31   ar
    38    50    48    1
    39    49    48    1
    40    28    37    1
    41    28    29   ar
    42    37    36    3
    43    48    42    1
    44    31    29   ar
    45    31    41    1
    46    29    32    1
    47    42    41   ar
    48    42    43   ar
    49    41    45   ar
    50    43    51    1
    51    43    44   ar
    52    45    46    1
    53    45    44   ar
    54    51    52    1
    55    44    47    1
