@<TRIPOS>MOLECULE
mol_data/noopt/geoms/mol2/6eh12fe(250)4ad(80)13ad(120).out
 45 48 0 0 0
SMALL
GASTEIGER

@<TRIPOS>ATOM
      1 C          -4.5775   -2.0270    0.0001 C.ar    1  LIG1        0.1140
      2 C          -3.1706   -2.0270    0.0001 C.ar    1  LIG1       -0.0260
      3 C          -2.5039   -0.8004    0.0001 C.ar    1  LIG1       -0.0362
      4 C          -3.2580    0.3743   -0.0001 C.ar    1  LIG1        0.0542
      5 C          -4.6612    0.2715   -0.0003 C.ar    1  LIG1        0.1316
      6 N          -5.3207   -0.9034   -0.0001 N.ar    1  LIG1       -0.2333
      7 H          -1.4054   -0.7607   -0.0009 H       1  LIG1        0.0637
      8 H          -2.5135   -3.1487    0.0004 H       1  LIG1        0.0646
      9 C          -5.2431   -3.1437    0.0002 C.1     1  LIG1       -0.0498
     10 C          -5.8581   -4.1755    0.0003 C.1     1  LIG1       -0.1124
     11 H          -6.4059   -5.0946    0.0004 H       1  LIG1        0.1232
     12 N          -2.6846    1.5410   -0.0003 N.pl3   1  LIG1       -0.3562
     13 H          -1.8048    1.4799   -0.4718 H       1  LIG1        0.1424
     14 H          -3.2703    2.2002   -0.4718 H       1  LIG1        0.1424
     15 C          -5.4065    1.3366   -0.0004 C.ar    1  LIG1        0.1980
     16 C          -6.2744    1.9294   -0.8939 C.ar    1  LIG1        0.1806
     17 C          -6.7823    3.1225   -0.2493 C.ar    1  LIG1        0.1125
     18 C          -6.1909    3.1796    0.9959 C.ar    1  LIG1        0.1548
     19 O          -5.3384    2.0893    1.1729 O.2     1  LIG1       -0.4482
     20 O          -6.5919    1.5194   -2.0860 O.3     1  LIG1       -0.5023
     21 H          -5.9547    0.8643   -2.3798 H       1  LIG1        0.2923
     22 C          -7.6310    3.9604   -0.7668 C.1     1  LIG1       -0.0622
     23 C          -8.4152    4.7345   -1.2450 C.1     1  LIG1       -0.1137
     24 H          -9.1137    5.4242   -1.6709 H       1  LIG1        0.1232
     25 C          -6.0003    3.5056    3.3114 C.ar    1  LIG1       -0.0503
     26 C          -6.0714    4.4240    4.3766 C.ar    1  LIG1       -0.0507
     27 C          -6.2441    3.9908    2.0103 C.ar    1  LIG1        0.0199
     28 C          -6.3712    5.7668    4.1583 C.ar    1  LIG1        0.0157
     29 H          -5.8869    4.0706    5.3887 H       1  LIG1        0.0625
     30 C          -6.5435    5.3312    1.7918 C.ar    1  LIG1       -0.0330
     31 C          -6.6091    6.2282    2.8631 C.ar    1  LIG1        0.0615
     32 H          -6.7277    5.6811    0.7792 H       1  LIG1        0.0638
     33 H          -5.7159    2.2653    3.5777 H       1  LIG1        0.0625
     34 N          -7.1369    8.5842    2.4673 N.1     1  LIG1       -0.1908
     35 C          -6.8895    7.4801    2.6528 C.1     1  LIG1        0.0998
     36 C          -6.4285    6.5873    5.1651 C.ar    1  LIG1        0.0490
     37 C          -6.9682    6.4285    6.4026 C.ar    1  LIG1       -0.0190
     38 C          -6.7555    7.6485    7.1216 C.ar    1  LIG1        0.0696
     39 C          -6.0937    8.4985    6.2924 C.ar    1  LIG1        0.0196
     40 N          -5.8919    7.8530    5.0934 N.ar    1  LIG1       -0.3594
     41 H          -5.4313    8.2392    4.3018 H       1  LIG1        0.1654
     42 H          -5.6798    9.7154    6.4873 H       1  LIG1        0.0820
     43 H          -7.5676    5.3641    6.8473 H       1  LIG1        0.0652
     44 N          -7.4512    8.1225    9.4188 N.1     1  LIG1       -0.1908
     45 C          -7.1252    7.9004    8.3423 C.1     1  LIG1        0.1007
@<TRIPOS>BOND
     1    21    20    1
     2    20    16    1
     3    24    23    1
     4    23    22    3
     5    16    17   ar
     6    16    15   ar
     7    22    17    1
     8    14    12    1
     9    13    12    1
    10    17    18   ar
    11     7     3    1
    12    15     5    1
    13    15    19   ar
    14     5     4   ar
    15     5     6   ar
    16    12     4    1
    17     4     3   ar
    18     6     1   ar
    19     1     2   ar
    20     1     9    1
    21     3     2   ar
    22     2     8    1
    23     9    10    3
    24    10    11    1
    25    32    30    1
    26    18    19   ar
    27    18    27    1
    28    30    27   ar
    29    30    31   ar
    30    27    25   ar
    31    34    35    3
    32    35    31    1
    33    31    28   ar
    34    25    33    1
    35    25    26   ar
    36    28    26   ar
    37    28    36    1
    38    41    40    1
    39    26    29    1
    40    40    36   ar
    41    40    39   ar
    42    36    37   ar
    43    39    42    1
    44    39    38   ar
    45    37    43    1
    46    37    38   ar
    47    38    45    1
    48    45    44    3
