@<TRIPOS>MOLECULE
mol_data/noopt/geoms/mol2/6eh13eh(200)13dd(260)12ea(340).out
 46 49 0 0 0
SMALL
GASTEIGER

@<TRIPOS>ATOM
      1 C          -4.5775   -2.0270    0.0001 C.ar    1  LIG1        0.1140
      2 C          -3.1706   -2.0270    0.0001 C.ar    1  LIG1       -0.0260
      3 C          -2.5039   -0.8004    0.0001 C.ar    1  LIG1       -0.0363
      4 C          -3.2580    0.3743   -0.0001 C.ar    1  LIG1        0.0525
      5 C          -4.6612    0.2715   -0.0003 C.ar    1  LIG1        0.1103
      6 N          -5.3207   -0.9034   -0.0001 N.ar    1  LIG1       -0.2351
      7 H          -1.4054   -0.7607   -0.0009 H       1  LIG1        0.0637
      8 H          -2.5135   -3.1487    0.0004 H       1  LIG1        0.0646
      9 C          -5.2431   -3.1437    0.0002 C.1     1  LIG1       -0.0498
     10 C          -5.8581   -4.1755    0.0003 C.1     1  LIG1       -0.1124
     11 H          -6.4059   -5.0946    0.0004 H       1  LIG1        0.1232
     12 N          -2.6846    1.5410   -0.0003 N.pl3   1  LIG1       -0.3563
     13 H          -1.8048    1.4799   -0.4718 H       1  LIG1        0.1424
     14 H          -3.2703    2.2002   -0.4718 H       1  LIG1        0.1424
     15 C          -5.4065    1.3366   -0.0004 C.ar    1  LIG1        0.0847
     16 C          -6.7160    1.4967   -0.3285 C.ar    1  LIG1        0.0727
     17 C          -7.0349    2.8815   -0.1517 C.ar    1  LIG1        0.0679
     18 C          -5.9068    3.5064    0.2783 C.ar    1  LIG1        0.0868
     19 N          -4.9073    2.5644    0.3718 N.ar    1  LIG1       -0.3493
     20 H          -3.9736    2.7423    0.6626 H       1  LIG1        0.1661
     21 C          -7.5260    0.5625   -0.7299 C.1     1  LIG1       -0.0656
     22 C          -8.2745   -0.3006   -1.1009 C.1     1  LIG1       -0.1138
     23 H          -8.9412   -1.0696   -1.4313 H       1  LIG1        0.1232
     24 N          -8.1892    3.4414   -0.3620 N.pl3   1  LIG1       -0.3553
     25 H          -8.0601    4.2863   -0.8812 H       1  LIG1        0.1424
     26 H          -8.7728    2.8171   -0.8812 H       1  LIG1        0.1424
     27 C          -5.6946    4.7542    0.5753 C.ar    1  LIG1        0.0841
     28 C          -5.7043    5.8621   -0.2123 C.ar    1  LIG1        0.0965
     29 C          -5.4049    6.9846    0.6250 C.ar    1  LIG1        0.0980
     30 C          -5.2271    6.5134    1.8877 C.ar    1  LIG1        0.1026
     31 N          -5.4032    5.1483    1.8617 N.ar    1  LIG1       -0.3485
     32 H          -5.3318    4.5433    2.6471 H       1  LIG1        0.1661
     33 N          -6.1492    5.9200   -2.6174 N.1     1  LIG1       -0.1908
     34 C          -5.9407    5.8929   -1.4902 C.1     1  LIG1        0.1027
     35 N          -5.2424    9.3219   -0.0797 N.1     1  LIG1       -0.1908
     36 C          -5.3185    8.2265    0.2505 C.1     1  LIG1        0.1027
     37 C          -4.9408    7.1408    2.9897 C.ar    1  LIG1        0.1674
     38 C          -3.7822    7.4593    3.6673 C.ar    1  LIG1        0.0718
     39 C          -4.1824    8.1842    4.8553 C.ar    1  LIG1       -0.0078
     40 C          -5.5596    8.2608    4.8246 C.ar    1  LIG1        0.0939
     41 O          -6.0505    7.6247    3.6839 O.2     1  LIG1       -0.4602
     42 H          -6.4761    8.7735    5.5909 H       1  LIG1        0.1030
     43 C          -2.5592    7.1766    3.3290 C.1     1  LIG1       -0.0658
     44 C          -1.4292    6.9155    3.0164 C.1     1  LIG1       -0.1138
     45 H          -0.4226    6.6828    2.7379 H       1  LIG1        0.1232
     46 H          -3.3784    8.6599    5.7594 H       1  LIG1        0.0661
@<TRIPOS>BOND
     1    33    34    3
     2    34    28    1
     3    23    22    1
     4    22    21    3
     5    26    24    1
     6    25    24    1
     7    21    16    1
     8    14    12    1
     9    13    12    1
    10    24    17    1
    11    16    17   ar
    12    16    15   ar
    13    28    27   ar
    14    28    29   ar
    15    17    18   ar
    16    35    36    3
    17     7     3    1
    18    15     5    1
    19    15    19   ar
    20     5     6   ar
    21     5     4   ar
    22    12     4    1
    23     6     1   ar
    24     4     3   ar
    25     1     2   ar
    26     1     9    1
    27     2     3   ar
    28     2     8    1
    29     9    10    3
    30    10    11    1
    31    36    29    1
    32    18    19   ar
    33    18    27    1
    34    19    20    1
    35    27    31   ar
    36    29    30   ar
    37    31    30   ar
    38    31    32    1
    39    30    37    1
    40    45    44    1
    41    37    38   ar
    42    37    41   ar
    43    44    43    3
    44    43    38    1
    45    38    39   ar
    46    41    40   ar
    47    40    39   ar
    48    40    42    1
    49    39    46    1
