@<TRIPOS>MOLECULE
mol_data/noopt/geoms/mol2/6eh12hh-13eh-6el.out
 53 56 0 0 0
SMALL
GASTEIGER

@<TRIPOS>ATOM
      1 C          -4.5775   -2.0270    0.0001 C.ar    1  LIG1        0.1140
      2 C          -3.1706   -2.0270    0.0001 C.ar    1  LIG1       -0.0260
      3 C          -2.5039   -0.8004    0.0001 C.ar    1  LIG1       -0.0362
      4 C          -3.2580    0.3743   -0.0001 C.ar    1  LIG1        0.0541
      5 C          -4.6612    0.2715   -0.0003 C.ar    1  LIG1        0.1298
      6 N          -5.3207   -0.9034   -0.0001 N.ar    1  LIG1       -0.2334
      7 H          -1.4054   -0.7607   -0.0009 H       1  LIG1        0.0637
      8 H          -2.5135   -3.1487    0.0004 H       1  LIG1        0.0646
      9 C          -5.2431   -3.1437    0.0002 C.1     1  LIG1       -0.0498
     10 C          -5.8581   -4.1755    0.0003 C.1     1  LIG1       -0.1124
     11 H          -6.4059   -5.0946    0.0004 H       1  LIG1        0.1232
     12 N          -2.6846    1.5410   -0.0003 N.pl3   1  LIG1       -0.3562
     13 H          -1.8048    1.4799   -0.4718 H       1  LIG1        0.1424
     14 H          -3.2703    2.2002   -0.4718 H       1  LIG1        0.1424
     15 C          -5.4065    1.3366   -0.0004 C.ar    1  LIG1        0.1781
     16 C          -5.1777    2.6969    0.0143 C.ar    1  LIG1        0.0943
     17 C          -6.4770    3.3362    0.0035 C.ar    1  LIG1        0.0942
     18 C          -7.4140    2.3237   -0.0171 C.ar    1  LIG1        0.1755
     19 O          -6.7784    1.0815   -0.0201 O.2     1  LIG1       -0.4479
     20 N          -4.0320    3.3109    0.0342 N.pl3   1  LIG1       -0.3535
     21 H          -3.3462    2.7521   -0.4321 H       1  LIG1        0.1425
     22 H          -4.1176    4.1914   -0.4321 H       1  LIG1        0.1425
     23 N          -6.6906    4.6186    0.0120 N.pl3   1  LIG1       -0.3535
     24 H          -5.9404    5.0845   -0.4572 H       1  LIG1        0.1425
     25 H          -7.5512    4.8163   -0.4572 H       1  LIG1        0.1425
     26 C          -8.7125    2.2634   -0.0340 C.ar    1  LIG1        0.1019
     27 C          -9.6413    3.2559   -0.0458 C.ar    1  LIG1        0.0742
     28 C         -10.9313    2.6343   -0.0616 C.ar    1  LIG1        0.0666
     29 C         -10.7340    1.2893   -0.0605 C.ar    1  LIG1        0.0719
     30 N          -9.3770    1.0578   -0.0431 N.ar    1  LIG1       -0.3492
     31 H          -8.9455    0.1624   -0.0386 H       1  LIG1        0.1661
     32 C          -9.3993    4.5332   -0.0418 C.1     1  LIG1       -0.0656
     33 C          -9.1756    5.7134   -0.0381 C.1     1  LIG1       -0.1138
     34 H          -8.9764    6.7647   -0.0348 H       1  LIG1        0.1232
     35 N         -12.0811    3.2409   -0.0749 N.pl3   1  LIG1       -0.3554
     36 H         -11.9906    4.1163   -0.5498 H       1  LIG1        0.1424
     37 H         -12.7525    2.6720   -0.5498 H       1  LIG1        0.1424
     38 C         -11.1450   -1.0235   -0.0775 C.ar    1  LIG1        0.1225
     39 C         -11.5901    0.3111   -0.0716 C.ar    1  LIG1        0.0374
     40 C         -12.9646    0.5555   -0.0776 C.ar    1  LIG1       -0.0066
     41 C         -13.8404   -0.5314   -0.0894 C.ar    1  LIG1        0.1388
     42 C         -13.2989   -1.8300   -0.0948 C.ar    1  LIG1        0.0706
     43 N         -11.9758   -2.0840   -0.0889 N.ar    1  LIG1       -0.2424
     44 H         -13.3498    1.5850   -0.0743 H       1  LIG1        0.0662
     45 H         -14.0735   -2.8740   -0.1057 H       1  LIG1        0.0867
     46 C          -9.8751   -1.3017   -0.0722 C.1     1  LIG1       -0.0491
     47 C          -8.7018   -1.5587   -0.0673 C.1     1  LIG1       -0.1124
     48 H          -7.6565   -1.7876   -0.0629 H       1  LIG1        0.1232
     49 O         -15.1286   -0.3566   -0.0956 O.3     1  LIG1       -0.4936
     50 C         -15.4202    1.0434   -0.0979 C.3     1  LIG1        0.0789
     51 H         -16.4805    1.1869   -0.1032 H       1  LIG1        0.0660
     52 H         -15.0034    1.4960    0.7775 H       1  LIG1        0.0660
     53 H         -14.9949    1.4949   -0.9698 H       1  LIG1        0.0660
@<TRIPOS>BOND
     1    53    50    1
     2    37    35    1
     3    36    35    1
     4    14    12    1
     5    13    12    1
     6    25    23    1
     7    24    23    1
     8    22    20    1
     9    21    20    1
    10    45    42    1
    11    51    50    1
    12    50    49    1
    13    50    52    1
    14    49    41    1
    15    42    41   ar
    16    42    43   ar
    17    41    40   ar
    18    43    38   ar
    19    40    44    1
    20    40    39   ar
    21    38    46    1
    22    38    39   ar
    23    35    28    1
    24    46    47    3
    25    39    29    1
    26    47    48    1
    27    28    29   ar
    28    28    27   ar
    29    29    30   ar
    30    27    32    1
    31    27    26   ar
    32    30    31    1
    33    30    26   ar
    34    32    33    3
    35    33    34    1
    36    26    18    1
    37    19    18   ar
    38    19    15   ar
    39    18    17   ar
    40     7     3    1
    41    15     5    1
    42    15    16   ar
    43     5     6   ar
    44     5     4   ar
    45    12     4    1
    46     6     1   ar
    47     4     3   ar
    48     3     2   ar
    49     2     1   ar
    50     2     8    1
    51     1     9    1
    52     9    10    3
    53    10    11    1
    54    17    23    1
    55    17    16   ar
    56    16    20    1
