@<TRIPOS>MOLECULE
mol_data/noopt/geoms/mol2/6eh6eh-4eh6eh.out
 55 60 0 0 0
SMALL
GASTEIGER

@<TRIPOS>ATOM
      1 C          -4.5775   -2.0270    0.0001 C.ar    1  LIG1        0.1139
      2 C          -3.1706   -2.0270    0.0001 C.ar    1  LIG1       -0.0260
      3 C          -2.5039   -0.8004    0.0001 C.ar    1  LIG1       -0.0361
      4 C          -3.2580    0.3743   -0.0001 C.ar    1  LIG1        0.0539
      5 C          -4.6612    0.2715   -0.0003 C.ar    1  LIG1        0.0949
      6 N          -5.3207   -0.9034   -0.0001 N.ar    1  LIG1       -0.2365
      7 H          -1.4054   -0.7607   -0.0009 H       1  LIG1        0.0637
      8 H          -2.5135   -3.1487    0.0004 H       1  LIG1        0.0646
      9 C          -5.2431   -3.1437    0.0002 C.1     1  LIG1       -0.0498
     10 C          -5.8581   -4.1755    0.0003 C.1     1  LIG1       -0.1124
     11 H          -6.4059   -5.0946    0.0004 H       1  LIG1        0.1232
     12 N          -2.6846    1.5410   -0.0003 N.pl3   1  LIG1       -0.3369
     13 H          -1.8048    1.4799   -0.4718 H       1  LIG1        0.1465
     14 H          -3.2703    2.2002   -0.4718 H       1  LIG1        0.0390
     15 C          -4.8196    2.6153   -0.0003 C.ar    1  LIG1        0.0569
     16 C          -5.4065    1.3366   -0.0004 C.ar    1  LIG1        0.0256
     17 C          -6.7994    1.2424   -0.0003 C.ar    1  LIG1       -0.0280
     18 C          -7.5524    2.4178   -0.0003 C.ar    1  LIG1        0.0516
     19 C          -6.8736    3.6502   -0.0004 C.ar    1  LIG1        0.0931
     20 N          -5.5307    3.7594   -0.0003 N.ar    1  LIG1       -0.2487
     21 H          -7.2937    0.2606   -0.0014 H       1  LIG1        0.0644
     22 C          -3.5271    2.7543   -0.0003 C.3     1  LIG1        0.0320
     23 C          -2.3328    2.8828   -0.0002 C.3     1  LIG1        0.0485
     24 H          -1.2689    2.9973   -0.0002 H       1  LIG1        0.0522
     25 N          -8.8520    2.3834   -0.0004 N.pl3   1  LIG1       -0.3563
     26 H          -9.2068    3.1908   -0.4718 H       1  LIG1        0.1424
     27 H          -9.1636    1.5584   -0.4719 H       1  LIG1        0.1424
     28 C          -6.8310    5.9958    0.0005 C.ar    1  LIG1        0.0346
     29 C          -7.5886    7.1830    0.0022 C.ar    1  LIG1       -0.0362
     30 C          -7.5307    4.7718   -0.0003 C.ar    1  LIG1        0.0193
     31 C          -8.9814    7.1551    0.0023 C.ar    1  LIG1        0.0059
     32 H          -7.0688    8.1385    0.0030 H       1  LIG1        0.0637
     33 C          -8.9211    4.7434   -0.0001 C.ar    1  LIG1       -0.0298
     34 C          -9.6560    5.9336    0.0011 C.ar    1  LIG1        0.0360
     35 H          -9.4376    3.7869   -0.0006 H       1  LIG1        0.0643
     36 C          -5.5341    6.0859    0.0002 C.1     1  LIG1       -0.0690
     37 C          -4.3358    6.1691   -0.0002 C.1     1  LIG1       -0.1139
     38 H          -3.2684    6.2432   -0.0005 H       1  LIG1        0.1232
     39 N         -10.9556    5.9008    0.0014 N.pl3   1  LIG1       -0.3381
     40 H         -11.3095    6.7086   -0.4699 H       1  LIG1        0.0390
     41 H         -11.2683    5.0762   -0.4699 H       1  LIG1        0.1465
     42 C         -11.0562    8.2567    0.0047 C.ar    1  LIG1        0.0547
     43 C          -9.6493    8.2703    0.0037 C.ar    1  LIG1        0.0073
     44 C          -8.9946    9.5034    0.0047 C.ar    1  LIG1       -0.0301
     45 C          -9.7600   10.6707    0.0063 C.ar    1  LIG1        0.0435
     46 C         -11.1621   10.5543    0.0069 C.ar    1  LIG1        0.0485
     47 N         -11.8102    9.3730    0.0062 N.ar    1  LIG1       -0.2571
     48 H          -7.8965    9.5537    0.0030 H       1  LIG1        0.0643
     49 H         -11.9177   11.6121    0.0085 H       1  LIG1        0.0848
     50 C         -11.7109    7.1336    0.0040 C.3     1  LIG1        0.0319
     51 C         -12.3159    6.0959    0.0033 C.3     1  LIG1        0.0484
     52 H         -12.8547    5.1715    0.0027 H       1  LIG1        0.0522
     53 N          -9.1979   11.8429    0.0071 N.pl3   1  LIG1       -0.3568
     54 H          -8.3175   11.7907   -0.4642 H       1  LIG1        0.1424
     55 H          -9.7899   12.4967   -0.4642 H       1  LIG1        0.1424
@<TRIPOS>BOND
     1    27    25    1
     2    26    25    1
     3    14    22    1
     4    13    12    1
     5    41    39    1
     6    40    50    1
     7    55    53    1
     8    54    53    1
     9    21    17    1
    10     7     3    1
    11    35    33    1
    12    38    37    1
    13    16    17   ar
    14    16     5    1
    15    16    15   ar
    16    25    18    1
    17    19    18   ar
    18    19    30    1
    19    19    20   ar
    20    17    18   ar
    21    12    23    1
    22    12     4    1
    23     5     6   ar
    24     5     4   ar
    25    30    33   ar
    26    30    28   ar
    27    15    20   ar
    28    15    22    1
    29    22    23    1
    30    23    24    1
    31    37    36    3
    32     6     1   ar
    33     4     3   ar
    34    33    34   ar
    35     1     2   ar
    36     1     9    1
    37     2     3   ar
    38     2     8    1
    39    36    28    1
    40     9    10    3
    41    10    11    1
    42    28    29   ar
    43    34    39    1
    44    34    31   ar
    45    39    51    1
    46    29    31   ar
    47    29    32    1
    48    31    43    1
    49    52    51    1
    50    48    44    1
    51    51    50    1
    52    43    42   ar
    53    43    44   ar
    54    50    42    1
    55    42    47   ar
    56    44    45   ar
    57    47    46   ar
    58    45    46   ar
    59    45    53    1
    60    46    49    1
