@<TRIPOS>MOLECULE
mol_data/noopt/geoms/mol2/6eh6ed(310)4ih(70)12da(100).out
 50 53 0 0 0
SMALL
GASTEIGER

@<TRIPOS>ATOM
      1 C          -4.5775   -2.0270    0.0001 C.ar    1  LIG1        0.1139
      2 C          -3.1706   -2.0270    0.0001 C.ar    1  LIG1       -0.0260
      3 C          -2.5039   -0.8004    0.0001 C.ar    1  LIG1       -0.0363
      4 C          -3.2580    0.3743   -0.0001 C.ar    1  LIG1        0.0511
      5 C          -4.6612    0.2715   -0.0003 C.ar    1  LIG1        0.0956
      6 N          -5.3207   -0.9034   -0.0001 N.ar    1  LIG1       -0.2365
      7 H          -1.4054   -0.7607   -0.0009 H       1  LIG1        0.0637
      8 H          -2.5135   -3.1487    0.0004 H       1  LIG1        0.0646
      9 C          -5.2431   -3.1437    0.0002 C.1     1  LIG1       -0.0498
     10 C          -5.8581   -4.1755    0.0003 C.1     1  LIG1       -0.1124
     11 H          -6.4059   -5.0946    0.0004 H       1  LIG1        0.1232
     12 N          -2.6846    1.5410   -0.0003 N.pl3   1  LIG1       -0.3563
     13 H          -1.8048    1.4799   -0.4718 H       1  LIG1        0.1424
     14 H          -3.2703    2.2002   -0.4718 H       1  LIG1        0.1424
     15 C          -6.4538    1.4718    0.9292 C.ar    1  LIG1        0.1231
     16 C          -5.4065    1.3366   -0.0004 C.ar    1  LIG1        0.0373
     17 C          -5.1901    2.3684   -0.9156 C.ar    1  LIG1       -0.0304
     18 C          -6.0197    3.4902   -0.8721 C.ar    1  LIG1        0.0784
     19 C          -7.0409    3.5331    0.0948 C.ar    1  LIG1        0.0900
     20 N          -7.2636    2.5469    0.9854 N.ar    1  LIG1       -0.2365
     21 H          -4.3821    2.2979   -1.6575 H       1  LIG1        0.0638
     22 C          -6.6944    0.5382    1.8013 C.1     1  LIG1       -0.0491
     23 C          -6.9167   -0.3245    2.6070 C.1     1  LIG1       -0.1124
     24 H          -7.1147   -1.0930    3.3247 H       1  LIG1        0.1232
     25 N          -5.7177    5.3481   -2.4351 N.1     1  LIG1       -0.1908
     26 C          -5.8592    4.4774   -1.7026 C.1     1  LIG1        0.1013
     27 C          -7.8973    5.3099    1.3651 C.ar    1  LIG1       -0.0405
     28 C          -8.7785    6.4078    1.4021 C.ar    1  LIG1       -0.0457
     29 C          -7.8388    4.5562    0.1750 C.ar    1  LIG1        0.0063
     30 C          -9.5673    6.7426    0.3038 C.ar    1  LIG1        0.0394
     31 H          -8.8394    7.0027    2.3107 H       1  LIG1        0.0628
     32 C          -8.6260    4.8901   -0.9218 C.ar    1  LIG1       -0.0309
     33 C          -9.4951    5.9847   -0.8656 C.ar    1  LIG1        0.0360
     34 H          -8.5630    4.2933   -1.8282 H       1  LIG1        0.0643
     35 C          -7.1866    5.0470    2.4218 C.3     1  LIG1       -0.0391
     36 H          -7.0730    5.9365    3.0056 H       1  LIG1        0.0278
     37 H          -6.2227    4.6905    2.1237 H       1  LIG1        0.0278
     38 H          -7.6792    4.2977    3.0055 H       1  LIG1        0.0278
     39 N         -10.2286    6.2919   -1.8940 N.pl3   1  LIG1       -0.3574
     40 H          -9.7573    6.9797   -2.4461 H       1  LIG1        0.1423
     41 H         -10.3881    5.4735   -2.4461 H       1  LIG1        0.1423
     42 C         -10.3700    7.7629    0.3726 C.ar    1  LIG1        0.1538
     43 C         -11.0962    8.3771    1.3718 C.ar    1  LIG1        0.0974
     44 C         -11.7937    9.4864    0.7555 C.ar    1  LIG1       -0.0058
     45 C         -11.4472    9.4765   -0.5799 C.ar    1  LIG1        0.0939
     46 O         -10.5702    8.4231   -0.8405 O.2     1  LIG1       -0.4615
     47 H         -11.7413   10.2009   -1.6186 H       1  LIG1        0.1030
     48 N         -11.2164    7.7543    3.7347 N.1     1  LIG1       -0.1907
     49 C         -11.1600    8.0462    2.6273 C.1     1  LIG1        0.1030
     50 H         -12.5869   10.3159    1.3661 H       1  LIG1        0.0662
@<TRIPOS>BOND
     1    41    39    1
     2    40    39    1
     3    25    26    3
     4    39    33    1
     5    34    32    1
     6    26    18    1
     7    21    17    1
     8    47    45    1
     9    32    33   ar
    10    32    29   ar
    11    17    18   ar
    12    17    16   ar
    13    18    19   ar
    14    33    30   ar
    15    46    45   ar
    16    46    42   ar
    17    45    44   ar
    18    14    12    1
    19    13    12    1
    20     7     3    1
    21    16     5    1
    22    16    15   ar
    23    12     4    1
    24     5     6   ar
    25     5     4   ar
    26     6     1   ar
    27     4     3   ar
    28     1     2   ar
    29     1     9    1
    30     2     3   ar
    31     2     8    1
    32     9    10    3
    33    10    11    1
    34    19    29    1
    35    19    20   ar
    36    29    27   ar
    37    30    42    1
    38    30    28   ar
    39    42    43   ar
    40    44    50    1
    41    44    43   ar
    42    15    20   ar
    43    15    22    1
    44    27    28   ar
    45    27    35    1
    46    43    49    1
    47    28    31    1
    48    22    23    3
    49    37    35    1
    50    35    38    1
    51    35    36    1
    52    23    24    1
    53    49    48    3
