@<TRIPOS>MOLECULE
mol_data/noopt/geoms/mol2/6eh6eh6eh.out
 41 43 0 0 0
SMALL
GASTEIGER

@<TRIPOS>ATOM
      1 C          -4.5775   -2.0270    0.0001 C.ar    1  LIG1        0.1139
      2 C          -3.1706   -2.0270    0.0001 C.ar    1  LIG1       -0.0260
      3 C          -2.5039   -0.8004    0.0001 C.ar    1  LIG1       -0.0363
      4 C          -3.2580    0.3743   -0.0001 C.ar    1  LIG1        0.0511
      5 C          -4.6612    0.2715   -0.0003 C.ar    1  LIG1        0.0956
      6 N          -5.3207   -0.9034   -0.0001 N.ar    1  LIG1       -0.2365
      7 H          -1.4054   -0.7607   -0.0009 H       1  LIG1        0.0637
      8 H          -2.5135   -3.1487    0.0004 H       1  LIG1        0.0646
      9 C          -5.2431   -3.1437    0.0002 C.1     1  LIG1       -0.0498
     10 C          -5.8581   -4.1755    0.0003 C.1     1  LIG1       -0.1124
     11 H          -6.4059   -5.0946    0.0004 H       1  LIG1        0.1232
     12 N          -2.6846    1.5410   -0.0003 N.pl3   1  LIG1       -0.3563
     13 H          -1.8048    1.4799   -0.4718 H       1  LIG1        0.1424
     14 H          -3.2703    2.2002   -0.4718 H       1  LIG1        0.1424
     15 C          -6.8088    1.2233   -0.0003 C.ar    1  LIG1        0.1231
     16 C          -5.4065    1.3366   -0.0004 C.ar    1  LIG1        0.0378
     17 C          -4.8408    2.6129   -0.0003 C.ar    1  LIG1       -0.0270
     18 C          -5.6871    3.7231   -0.0003 C.ar    1  LIG1        0.0517
     19 C          -7.0774    3.5076   -0.0004 C.ar    1  LIG1        0.0957
     20 N          -7.6401    2.2834   -0.0003 N.ar    1  LIG1       -0.2358
     21 H          -3.7491    2.7410   -0.0014 H       1  LIG1        0.0644
     22 C          -7.3823    0.0566   -0.0003 C.1     1  LIG1       -0.0491
     23 C          -7.9122   -1.0214   -0.0003 C.1     1  LIG1       -0.1124
     24 H          -8.3842   -1.9816   -0.0003 H       1  LIG1        0.1232
     25 N          -5.2095    4.9322   -0.0004 N.pl3   1  LIG1       -0.3563
     26 H          -4.3276    4.9422   -0.4718 H       1  LIG1        0.1424
     27 H          -5.8464    5.5421   -0.4718 H       1  LIG1        0.1424
     28 C          -9.2948    4.2833   -0.0001 C.ar    1  LIG1        0.1224
     29 C          -7.9061    4.5092   -0.0003 C.ar    1  LIG1        0.0377
     30 C          -7.4450    5.8270   -0.0001 C.ar    1  LIG1       -0.0277
     31 C          -8.3780    6.8653    0.0002 C.ar    1  LIG1        0.0436
     32 C          -9.7465    6.5385    0.0002 C.ar    1  LIG1        0.0496
     33 N         -10.2087    5.2730    0.0002 N.ar    1  LIG1       -0.2442
     34 H          -6.3672    6.0425   -0.0012 H       1  LIG1        0.0644
     35 H         -10.6531    7.4701    0.0005 H       1  LIG1        0.0849
     36 C          -9.7724    3.0742   -0.0002 C.1     1  LIG1       -0.0491
     37 C         -10.2137    1.9570   -0.0002 C.1     1  LIG1       -0.1124
     38 H         -10.6069    0.9619   -0.0003 H       1  LIG1        0.1232
     39 N          -7.9993    8.1090    0.0002 N.pl3   1  LIG1       -0.3568
     40 H          -7.1212    8.1900   -0.4712 H       1  LIG1        0.1424
     41 H          -8.6833    8.6657   -0.4712 H       1  LIG1        0.1424
@<TRIPOS>BOND
     1    27    25    1
     2    26    25    1
     3    14    12    1
     4    13    12    1
     5    41    39    1
     6    40    39    1
     7    21    17    1
     8    34    30    1
     9     7     3    1
    10    16     5    1
    11    16    15   ar
    12    16    17   ar
    13    19    20   ar
    14    19    29    1
    15    19    18   ar
    16    25    18    1
    17    38    37    1
    18     5     6   ar
    19     5     4   ar
    20    12     4    1
    21    15    22    1
    22    15    20   ar
    23    17    18   ar
    24    22    23    3
    25    23    24    1
    26    29    28   ar
    27    29    30   ar
    28    37    36    3
    29    36    28    1
    30     6     1   ar
    31     4     3   ar
    32    28    33   ar
    33    30    31   ar
    34     2     3   ar
    35     2     1   ar
    36     2     8    1
    37     1     9    1
    38    33    32   ar
    39    32    31   ar
    40    32    35    1
    41    31    39    1
    42     9    10    3
    43    10    11    1
