@<TRIPOS>MOLECULE
mol_data/noopt/geoms/mol2/6eh6eh-6eh6eh-.out
 54 60 0 0 0
SMALL
GASTEIGER

@<TRIPOS>ATOM
      1 C          -4.5775   -2.0270    0.0001 C.ar    1  LIG1        0.1139
      2 C          -3.1706   -2.0270    0.0001 C.ar    1  LIG1       -0.0260
      3 C          -2.5039   -0.8004    0.0001 C.ar    1  LIG1       -0.0361
      4 C          -3.2580    0.3743   -0.0001 C.ar    1  LIG1        0.0539
      5 C          -4.6612    0.2715   -0.0003 C.ar    1  LIG1        0.0949
      6 N          -5.3207   -0.9034   -0.0001 N.ar    1  LIG1       -0.2365
      7 H          -1.4054   -0.7607   -0.0009 H       1  LIG1        0.0637
      8 H          -2.5135   -3.1487    0.0004 H       1  LIG1        0.0646
      9 C          -5.2431   -3.1437    0.0002 C.1     1  LIG1       -0.0498
     10 C          -5.8581   -4.1755    0.0003 C.1     1  LIG1       -0.1124
     11 H          -6.4059   -5.0946    0.0004 H       1  LIG1        0.1232
     12 N          -2.6846    1.5410   -0.0003 N.pl3   1  LIG1       -0.3369
     13 H          -1.8048    1.4799   -0.4718 H       1  LIG1        0.1465
     14 H          -3.2703    2.2002   -0.4718 H       1  LIG1        0.0390
     15 C          -4.8196    2.6153   -0.0003 C.ar    1  LIG1        0.0569
     16 C          -5.4065    1.3366   -0.0004 C.ar    1  LIG1        0.0256
     17 C          -6.7994    1.2424   -0.0003 C.ar    1  LIG1       -0.0278
     18 C          -7.5524    2.4178   -0.0003 C.ar    1  LIG1        0.0544
     19 C          -6.8736    3.6502   -0.0004 C.ar    1  LIG1        0.0939
     20 N          -5.5307    3.7594   -0.0003 N.ar    1  LIG1       -0.2487
     21 H          -7.2937    0.2606   -0.0014 H       1  LIG1        0.0644
     22 C          -3.5271    2.7543   -0.0003 C.3     1  LIG1        0.0320
     23 C          -2.3328    2.8828   -0.0002 C.3     1  LIG1        0.0485
     24 H          -1.2689    2.9973   -0.0002 H       1  LIG1        0.0522
     25 N          -8.8520    2.3834   -0.0004 N.pl3   1  LIG1       -0.3369
     26 H          -9.2068    3.1908   -0.4718 H       1  LIG1        0.0390
     27 H          -9.1636    1.5584   -0.4719 H       1  LIG1        0.1465
     28 C          -8.9376    4.7719   -0.0001 C.ar    1  LIG1        0.0569
     29 C          -7.5307    4.7719   -0.0003 C.ar    1  LIG1        0.0256
     30 C          -6.8640    5.9985   -0.0001 C.ar    1  LIG1       -0.0278
     31 C          -7.6181    7.1732    0.0002 C.ar    1  LIG1        0.0544
     32 C          -9.0213    7.0704    0.0002 C.ar    1  LIG1        0.0939
     33 N          -9.6808    5.8955    0.0002 N.ar    1  LIG1       -0.2487
     34 H          -5.7655    6.0382   -0.0012 H       1  LIG1        0.0644
     35 C          -9.6032    3.6552   -0.0002 C.3     1  LIG1        0.0320
     36 C         -10.2182    2.6234   -0.0002 C.3     1  LIG1        0.0485
     37 H         -10.7661    1.7043   -0.0003 H       1  LIG1        0.0522
     38 N          -7.0447    8.3399    0.0002 N.pl3   1  LIG1       -0.3369
     39 H          -6.1649    8.2789   -0.4712 H       1  LIG1        0.1465
     40 H          -7.6304    8.9992   -0.4712 H       1  LIG1        0.0390
     41 C          -9.1798    9.4141    0.0008 C.ar    1  LIG1        0.0562
     42 C          -9.7667    8.1355    0.0005 C.ar    1  LIG1        0.0255
     43 C         -11.1596    8.0413    0.0008 C.ar    1  LIG1       -0.0286
     44 C         -11.9126    9.2167    0.0012 C.ar    1  LIG1        0.0436
     45 C         -11.2338   10.4491    0.0013 C.ar    1  LIG1        0.0485
     46 N          -9.8909   10.5583    0.0012 N.ar    1  LIG1       -0.2570
     47 H         -11.6539    7.0595   -0.0005 H       1  LIG1        0.0643
     48 H         -11.8909   11.5707    0.0018 H       1  LIG1        0.0848
     49 C          -7.8872    9.5532    0.0006 C.3     1  LIG1        0.0320
     50 C          -6.6929    9.6817    0.0005 C.3     1  LIG1        0.0485
     51 H          -5.6290    9.7962    0.0003 H       1  LIG1        0.0522
     52 N         -13.2121    9.1823    0.0013 N.pl3   1  LIG1       -0.3568
     53 H         -13.5670    9.9896   -0.4700 H       1  LIG1        0.1424
     54 H         -13.5238    8.3573   -0.4701 H       1  LIG1        0.1424
@<TRIPOS>BOND
     1    27    25    1
     2    26    35    1
     3    14    22    1
     4    13    12    1
     5    40    49    1
     6    39    38    1
     7    54    52    1
     8    53    52    1
     9    21    17    1
    10    34    30    1
    11     7     3    1
    12    47    43    1
    13    16    17   ar
    14    16     5    1
    15    16    15   ar
    16    25    18    1
    17    25    36    1
    18    19    18   ar
    19    19    29    1
    20    19    20   ar
    21    37    36    1
    22    17    18   ar
    23    12    23    1
    24    12     4    1
    25     5     6   ar
    26     5     4   ar
    27    29    28   ar
    28    29    30   ar
    29    15    20   ar
    30    15    22    1
    31    22    23    1
    32    23    24    1
    33    36    35    1
    34    35    28    1
    35     6     1   ar
    36     4     3   ar
    37    28    33   ar
    38    30    31   ar
    39     2     1   ar
    40     2     3   ar
    41     2     8    1
    42     1     9    1
    43    33    32   ar
    44    32    31   ar
    45    32    42    1
    46    31    38    1
    47    38    50    1
    48     9    10    3
    49    10    11    1
    50    51    50    1
    51    42    43   ar
    52    42    41   ar
    53    50    49    1
    54    49    41    1
    55    43    44   ar
    56    41    46   ar
    57    44    45   ar
    58    44    52    1
    59    46    45   ar
    60    45    48    1
