@<TRIPOS>MOLECULE
mol_data/noopt/geoms/mol2/6eh6da12eh12fe4fh12ei13ae12hi-.out
 93 100 0 0 0
SMALL
GASTEIGER

@<TRIPOS>ATOM
      1 C          -4.5775   -2.0270    0.0001 C.ar    1  LIG1        0.1139
      2 C          -3.1706   -2.0270    0.0001 C.ar    1  LIG1       -0.0260
      3 C          -2.5039   -0.8004    0.0001 C.ar    1  LIG1       -0.0363
      4 C          -3.2580    0.3743   -0.0001 C.ar    1  LIG1        0.0511
      5 C          -4.6612    0.2715   -0.0003 C.ar    1  LIG1        0.0956
      6 N          -5.3207   -0.9034   -0.0001 N.ar    1  LIG1       -0.2365
      7 H          -1.4054   -0.7607   -0.0009 H       1  LIG1        0.0637
      8 H          -2.5135   -3.1487    0.0004 H       1  LIG1        0.0646
      9 C          -5.2431   -3.1437    0.0002 C.1     1  LIG1       -0.0498
     10 C          -5.8581   -4.1755    0.0003 C.1     1  LIG1       -0.1124
     11 H          -6.4059   -5.0946    0.0004 H       1  LIG1        0.1232
     12 N          -2.6846    1.5410   -0.0003 N.pl3   1  LIG1       -0.3563
     13 H          -1.8048    1.4799   -0.4718 H       1  LIG1        0.1424
     14 H          -3.2703    2.2002   -0.4718 H       1  LIG1        0.1424
     15 C          -6.8088    1.2233   -0.0003 C.ar    1  LIG1        0.1500
     16 C          -5.4065    1.3366   -0.0004 C.ar    1  LIG1        0.0381
     17 C          -4.8408    2.6129   -0.0003 C.ar    1  LIG1       -0.0477
     18 C          -5.6871    3.7231   -0.0003 C.ar    1  LIG1       -0.0319
     19 C          -7.0774    3.5076   -0.0004 C.ar    1  LIG1        0.1088
     20 N          -7.6401    2.2834   -0.0003 N.ar    1  LIG1       -0.2325
     21 H          -3.7491    2.7410   -0.0014 H       1  LIG1        0.0626
     22 N          -7.8881   -0.9724   -0.0003 N.1     1  LIG1       -0.1893
     23 C          -7.3823    0.0566   -0.0003 C.1     1  LIG1        0.1198
     24 H          -5.2095    4.9322   -0.0004 H       1  LIG1        0.0640
     25 C          -7.9061    4.5092   -0.0003 C.ar    1  LIG1        0.1711
     26 C          -7.7876    5.8836   -0.0002 C.ar    1  LIG1        0.0933
     27 C          -9.1342    6.4161   -0.0001 C.ar    1  LIG1        0.0905
     28 C          -9.9867    5.3313   -0.0002 C.ar    1  LIG1        0.1961
     29 O          -9.2531    4.1443   -0.0004 O.2     1  LIG1       -0.4469
     30 C          -6.6949    6.5880   -0.0001 C.1     1  LIG1       -0.0639
     31 C          -5.6853    7.2388   -0.0000 C.1     1  LIG1       -0.1137
     32 H          -4.7860    7.8186    0.0000 H       1  LIG1        0.1232
     33 N          -9.4503    7.6771   -0.0000 N.pl3   1  LIG1       -0.3540
     34 H          -8.7393    8.1990   -0.4714 H       1  LIG1        0.1425
     35 H         -10.3233    7.8020   -0.4714 H       1  LIG1        0.1425
     36 C         -11.2762    5.1666   -0.0002 C.ar    1  LIG1        0.2148
     37 C         -12.3742    6.0015    0.0147 C.ar    1  LIG1        0.1822
     38 C         -13.5442    5.1484    0.0040 C.ar    1  LIG1        0.1126
     39 C         -13.0833    3.8481   -0.0167 C.ar    1  LIG1        0.1584
     40 O         -11.6881    3.8333   -0.0198 O.2     1  LIG1       -0.4465
     41 O         -12.3851    7.3014    0.0345 O.3     1  LIG1       -0.5023
     42 H         -13.2927    7.6141    0.0394 H       1  LIG1        0.2923
     43 C         -14.7788    5.5555    0.0126 C.1     1  LIG1       -0.0622
     44 C         -15.9196    5.9317    0.0206 C.1     1  LIG1       -0.1137
     45 H         -16.9357    6.2668    0.0277 H       1  LIG1        0.1232
     46 C         -15.0386    2.5518   -0.0418 C.ar    1  LIG1        0.1283
     47 C         -15.5858    1.2543   -0.0584 C.ar    1  LIG1       -0.0070
     48 C         -13.6337    2.6705   -0.0335 C.ar    1  LIG1        0.0618
     49 C         -14.7721    0.1236   -0.0670 C.ar    1  LIG1        0.0426
     50 H         -16.6674    1.1398   -0.0648 H       1  LIG1        0.0662
     51 C         -12.8209    1.5421   -0.0421 C.ar    1  LIG1       -0.0261
     52 C         -13.3836    0.2616   -0.0590 C.ar    1  LIG1        0.0363
     53 H         -11.7403    1.6599   -0.0353 H       1  LIG1        0.0644
     54 O         -15.8489    3.5683   -0.0346 O.3     1  LIG1       -0.5060
     55 H         -16.7563    3.2547   -0.0329 H       1  LIG1        0.2922
     56 N         -12.6188   -0.7897   -0.0668 N.pl3   1  LIG1       -0.3574
     57 H         -13.0846   -1.5372   -0.5402 H       1  LIG1        0.1423
     58 H         -11.7641   -0.5766   -0.5403 H       1  LIG1        0.1423
     59 C         -15.3110   -1.0594   -0.0825 C.ar    1  LIG1        0.1532
     60 C         -16.5991   -1.5531   -0.0942 C.ar    1  LIG1        0.0740
     61 C         -16.4898   -2.9969   -0.1093 C.ar    1  LIG1        0.0128
     62 C         -15.1415   -3.2899   -0.1059 C.ar    1  LIG1        0.1559
     63 O         -14.3943   -2.1116   -0.0896 O.2     1  LIG1       -0.4518
     64 C         -17.7101   -0.8779   -0.0923 C.1     1  LIG1       -0.0656
     65 C         -18.7366   -0.2541   -0.0905 C.1     1  LIG1       -0.1138
     66 H         -19.6510    0.3016   -0.0889 H       1  LIG1        0.1232
     67 C         -17.4862   -3.8323   -0.1233 C.3     1  LIG1       -0.0349
     68 H         -17.2024   -4.7344    0.3773 H       1  LIG1        0.0279
     69 H         -17.7512   -4.0545   -1.1359 H       1  LIG1        0.0279
     70 H         -18.3249   -3.3953    0.3772 H       1  LIG1        0.0279
     71 C         -14.4300   -4.3779   -0.1142 C.ar    1  LIG1        0.0841
     72 C         -14.8129   -5.6822   -0.1035 C.ar    1  LIG1       -0.0172
     73 C         -13.6222   -6.4776   -0.1196 C.ar    1  LIG1        0.0537
     74 C         -12.5641   -5.6243   -0.1411 C.ar    1  LIG1        0.1000
     75 N         -13.0542   -4.3378   -0.1374 N.ar    1  LIG1       -0.3483
     76 H         -12.5022   -3.5113   -0.1502 H       1  LIG1        0.1661
     77 H         -16.0359   -6.1225   -0.0812 H       1  LIG1        0.0652
     78 C         -13.5605   -7.7761   -0.1150 C.1     1  LIG1       -0.0674
     79 C         -13.5034   -8.9759   -0.1108 C.1     1  LIG1       -0.1138
     80 H         -13.4526  -10.0447   -0.1070 H       1  LIG1        0.1232
     81 C         -11.2868   -5.8650   -0.1614 C.ar    1  LIG1        0.1728
     82 C         -10.4993   -6.9977   -0.1619 C.ar    1  LIG1        0.0754
     83 C          -9.1237   -6.5465   -0.1923 C.ar    1  LIG1        0.0086
     84 C          -9.1618   -5.1674   -0.2085 C.ar    1  LIG1        0.0974
     85 O         -10.4844   -4.7234   -0.1900 O.2     1  LIG1       -0.4592
     86 H          -8.2756   -4.2166   -0.2361 H       1  LIG1        0.1033
     87 N         -10.8891   -8.2377   -0.1397 N.pl3   1  LIG1       -0.3548
     88 H         -11.7704   -8.3185   -0.6053 H       1  LIG1        0.1424
     89 H         -10.2126   -8.8081   -0.6053 H       1  LIG1        0.1424
     90 C          -8.0743   -7.3144   -0.2020 C.3     1  LIG1       -0.0350
     91 H          -7.2675   -6.8222    0.2997 H       1  LIG1        0.0279
     92 H          -7.7925   -7.5205   -1.2135 H       1  LIG1        0.0279
     93 H          -8.2995   -8.2323    0.2997 H       1  LIG1        0.0279
@<TRIPOS>BOND
     1    92    90    1
     2    69    67    1
     3    89    87    1
     4    88    87    1
     5    58    56    1
     6    57    56    1
     7    14    12    1
     8    13    12    1
     9    35    33    1
    10    34    33    1
    11    86    84    1
    12    84    83   ar
    13    84    85   ar
    14    90    83    1
    15    90    93    1
    16    90    91    1
    17    83    82   ar
    18    85    81   ar
    19    82    81   ar
    20    82    87    1
    21    81    74    1
    22    76    75    1
    23    74    75   ar
    24    74    73   ar
    25    75    71   ar
    26    67    61    1
    27    67    70    1
    28    67    68    1
    29    73    78    1
    30    73    72   ar
    31    78    79    3
    32    71    62    1
    33    71    72   ar
    34    79    80    1
    35    61    62   ar
    36    61    60   ar
    37    62    63   ar
    38    72    77    1
    39    60    64    1
    40    60    59   ar
    41    64    65    3
    42    65    66    1
    43    63    59   ar
    44    59    49    1
    45    49    52   ar
    46    49    47   ar
    47    56    52    1
    48    50    47    1
    49    52    51   ar
    50    47    46   ar
    51    51    53    1
    52    51    48   ar
    53    46    54    1
    54    46    48   ar
    55    54    55    1
    56    48    39    1
    57    40    39   ar
    58    40    36   ar
    59    39    38   ar
    60    21    17    1
    61     7     3    1
    62    29    25   ar
    63    29    28   ar
    64    16     5    1
    65    16    15   ar
    66    16    17   ar
    67    19    20   ar
    68    19    25    1
    69    19    18   ar
    70    24    18    1
    71    12     4    1
    72     5     6   ar
    73     5     4   ar
    74    15    23    1
    75    15    20   ar
    76    17    18   ar
    77    23    22    3
    78    25    26   ar
    79    28    36    1
    80    28    27   ar
    81    26    30    1
    82    26    27   ar
    83    36    37   ar
    84    30    31    3
    85    27    33    1
    86     6     1   ar
    87     4     3   ar
    88    31    32    1
    89     1     2   ar
    90     1     9    1
    91     2     3   ar
    92     2     8    1
    93     9    10    3
    94    10    11    1
    95    38    43    1
    96    38    37   ar
    97    43    44    3
    98    37    41    1
    99    44    45    1
   100    41    42    1
