@<TRIPOS>MOLECULE
mol_data/noopt/geoms/mol2/6eh6eh-6eh.out
 41 45 0 0 0
SMALL
GASTEIGER

@<TRIPOS>ATOM
      1 C          -4.5775   -2.0270    0.0001 C.ar    1  LIG1        0.1139
      2 C          -3.1706   -2.0270    0.0001 C.ar    1  LIG1       -0.0260
      3 C          -2.5039   -0.8004    0.0001 C.ar    1  LIG1       -0.0361
      4 C          -3.2580    0.3743   -0.0001 C.ar    1  LIG1        0.0539
      5 C          -4.6612    0.2715   -0.0003 C.ar    1  LIG1        0.0949
      6 N          -5.3207   -0.9034   -0.0001 N.ar    1  LIG1       -0.2365
      7 H          -1.4054   -0.7607   -0.0009 H       1  LIG1        0.0637
      8 H          -2.5135   -3.1487    0.0004 H       1  LIG1        0.0646
      9 C          -5.2431   -3.1437    0.0002 C.1     1  LIG1       -0.0498
     10 C          -5.8581   -4.1755    0.0003 C.1     1  LIG1       -0.1124
     11 H          -6.4059   -5.0946    0.0004 H       1  LIG1        0.1232
     12 N          -2.6846    1.5410   -0.0003 N.pl3   1  LIG1       -0.3369
     13 H          -1.8048    1.4799   -0.4718 H       1  LIG1        0.1465
     14 H          -3.2703    2.2002   -0.4718 H       1  LIG1        0.0390
     15 C          -4.8196    2.6153   -0.0003 C.ar    1  LIG1        0.0569
     16 C          -5.4065    1.3366   -0.0004 C.ar    1  LIG1        0.0256
     17 C          -6.7994    1.2424   -0.0003 C.ar    1  LIG1       -0.0278
     18 C          -7.5524    2.4178   -0.0003 C.ar    1  LIG1        0.0544
     19 C          -6.8736    3.6502   -0.0004 C.ar    1  LIG1        0.0939
     20 N          -5.5307    3.7594   -0.0003 N.ar    1  LIG1       -0.2487
     21 H          -7.2937    0.2606   -0.0014 H       1  LIG1        0.0644
     22 C          -3.5271    2.7543   -0.0003 C.3     1  LIG1        0.0320
     23 C          -2.3328    2.8828   -0.0002 C.3     1  LIG1        0.0485
     24 H          -1.2689    2.9973   -0.0002 H       1  LIG1        0.0522
     25 N          -8.8520    2.3834   -0.0004 N.pl3   1  LIG1       -0.3369
     26 H          -9.2068    3.1908   -0.4718 H       1  LIG1        0.0390
     27 H          -9.1636    1.5584   -0.4719 H       1  LIG1        0.1465
     28 C          -8.9376    4.7719   -0.0001 C.ar    1  LIG1        0.0562
     29 C          -7.5307    4.7719   -0.0003 C.ar    1  LIG1        0.0255
     30 C          -6.8640    5.9985   -0.0001 C.ar    1  LIG1       -0.0286
     31 C          -7.6181    7.1732    0.0002 C.ar    1  LIG1        0.0436
     32 C          -9.0213    7.0704    0.0002 C.ar    1  LIG1        0.0485
     33 N          -9.6808    5.8955    0.0002 N.ar    1  LIG1       -0.2570
     34 H          -5.7655    6.0382   -0.0012 H       1  LIG1        0.0643
     35 H          -9.7666    8.1355    0.0005 H       1  LIG1        0.0848
     36 C          -9.6032    3.6552   -0.0002 C.3     1  LIG1        0.0320
     37 C         -10.2182    2.6234   -0.0002 C.3     1  LIG1        0.0485
     38 H         -10.7661    1.7043   -0.0003 H       1  LIG1        0.0522
     39 N          -7.0447    8.3399    0.0002 N.pl3   1  LIG1       -0.3568
     40 H          -6.1649    8.2789   -0.4712 H       1  LIG1        0.1424
     41 H          -7.6304    8.9992   -0.4712 H       1  LIG1        0.1424
@<TRIPOS>BOND
     1    27    25    1
     2    26    36    1
     3    14    22    1
     4    13    12    1
     5    41    39    1
     6    40    39    1
     7    21    17    1
     8    34    30    1
     9     7     3    1
    10    16    17   ar
    11    16     5    1
    12    16    15   ar
    13    25    18    1
    14    25    37    1
    15    19    18   ar
    16    19    29    1
    17    19    20   ar
    18    38    37    1
    19    17    18   ar
    20    12    23    1
    21    12     4    1
    22     5     6   ar
    23     5     4   ar
    24    29    28   ar
    25    29    30   ar
    26    15    20   ar
    27    15    22    1
    28    22    23    1
    29    23    24    1
    30    37    36    1
    31    36    28    1
    32     6     1   ar
    33     4     3   ar
    34    28    33   ar
    35    30    31   ar
    36     2     3   ar
    37     2     1   ar
    38     2     8    1
    39     1     9    1
    40    33    32   ar
    41    32    31   ar
    42    32    35    1
    43    31    39    1
    44     9    10    3
    45    10    11    1
