@<TRIPOS>MOLECULE
mol_data/noopt/geoms/mol2/6eh6eh-.out
 28 30 0 0 0
SMALL
GASTEIGER

@<TRIPOS>ATOM
      1 C          -4.5775   -2.0270    0.0001 C.ar    1  LIG1        0.1139
      2 C          -3.1706   -2.0270    0.0001 C.ar    1  LIG1       -0.0260
      3 C          -2.5039   -0.8004    0.0001 C.ar    1  LIG1       -0.0361
      4 C          -3.2580    0.3743   -0.0001 C.ar    1  LIG1        0.0539
      5 C          -4.6612    0.2715   -0.0003 C.ar    1  LIG1        0.0949
      6 N          -5.3207   -0.9034   -0.0001 N.ar    1  LIG1       -0.2365
      7 H          -1.4054   -0.7607   -0.0009 H       1  LIG1        0.0637
      8 H          -2.5135   -3.1487    0.0004 H       1  LIG1        0.0646
      9 C          -5.2431   -3.1437    0.0002 C.1     1  LIG1       -0.0498
     10 C          -5.8581   -4.1755    0.0003 C.1     1  LIG1       -0.1124
     11 H          -6.4059   -5.0946    0.0004 H       1  LIG1        0.1232
     12 N          -2.6846    1.5410   -0.0003 N.pl3   1  LIG1       -0.3369
     13 H          -1.8048    1.4799   -0.4718 H       1  LIG1        0.1465
     14 H          -3.2703    2.2002   -0.4718 H       1  LIG1        0.0390
     15 C          -4.8196    2.6153   -0.0003 C.ar    1  LIG1        0.0562
     16 C          -5.4065    1.3366   -0.0004 C.ar    1  LIG1        0.0256
     17 C          -6.7994    1.2424   -0.0003 C.ar    1  LIG1       -0.0286
     18 C          -7.5524    2.4178   -0.0003 C.ar    1  LIG1        0.0436
     19 C          -6.8736    3.6502   -0.0004 C.ar    1  LIG1        0.0485
     20 N          -5.5307    3.7594   -0.0003 N.ar    1  LIG1       -0.2570
     21 H          -7.2937    0.2606   -0.0014 H       1  LIG1        0.0643
     22 H          -7.5307    4.7719   -0.0003 H       1  LIG1        0.0848
     23 C          -3.5271    2.7543   -0.0003 C.3     1  LIG1        0.0320
     24 C          -2.3328    2.8828   -0.0002 C.3     1  LIG1        0.0485
     25 H          -1.2689    2.9973   -0.0002 H       1  LIG1        0.0522
     26 N          -8.8520    2.3834   -0.0004 N.pl3   1  LIG1       -0.3568
     27 H          -9.2068    3.1908   -0.4718 H       1  LIG1        0.1424
     28 H          -9.1636    1.5584   -0.4719 H       1  LIG1        0.1424
@<TRIPOS>BOND
     1    28    26    1
     2    27    26    1
     3    14    23    1
     4    13    12    1
     5    21    17    1
     6     7     3    1
     7    16    17   ar
     8    16     5    1
     9    16    15   ar
    10    26    18    1
    11    19    18   ar
    12    19    22    1
    13    19    20   ar
    14    17    18   ar
    15     5     6   ar
    16     5     4   ar
    17    12    24    1
    18    12     4    1
    19    15    20   ar
    20    15    23    1
    21    23    24    1
    22    24    25    1
    23     6     1   ar
    24     4     3   ar
    25     1     2   ar
    26     1     9    1
    27     3     2   ar
    28     2     8    1
    29     9    10    3
    30    10    11    1
