@<TRIPOS>MOLECULE
mol_data/noopt/geoms/mol2/6eh6eh6eh-6eh-.out
 54 58 0 0 0
SMALL
GASTEIGER

@<TRIPOS>ATOM
      1 C          -4.5775   -2.0270    0.0001 C.ar    1  LIG1        0.1139
      2 C          -3.1706   -2.0270    0.0001 C.ar    1  LIG1       -0.0260
      3 C          -2.5039   -0.8004    0.0001 C.ar    1  LIG1       -0.0363
      4 C          -3.2580    0.3743   -0.0001 C.ar    1  LIG1        0.0511
      5 C          -4.6612    0.2715   -0.0003 C.ar    1  LIG1        0.0956
      6 N          -5.3207   -0.9034   -0.0001 N.ar    1  LIG1       -0.2365
      7 H          -1.4054   -0.7607   -0.0009 H       1  LIG1        0.0637
      8 H          -2.5135   -3.1487    0.0004 H       1  LIG1        0.0646
      9 C          -5.2431   -3.1437    0.0002 C.1     1  LIG1       -0.0498
     10 C          -5.8581   -4.1755    0.0003 C.1     1  LIG1       -0.1124
     11 H          -6.4059   -5.0946    0.0004 H       1  LIG1        0.1232
     12 N          -2.6846    1.5410   -0.0003 N.pl3   1  LIG1       -0.3563
     13 H          -1.8048    1.4799   -0.4718 H       1  LIG1        0.1424
     14 H          -3.2703    2.2002   -0.4718 H       1  LIG1        0.1424
     15 C          -6.8088    1.2233   -0.0003 C.ar    1  LIG1        0.1231
     16 C          -5.4065    1.3366   -0.0004 C.ar    1  LIG1        0.0378
     17 C          -4.8408    2.6129   -0.0003 C.ar    1  LIG1       -0.0268
     18 C          -5.6871    3.7231   -0.0003 C.ar    1  LIG1        0.0545
     19 C          -7.0774    3.5076   -0.0004 C.ar    1  LIG1        0.0950
     20 N          -7.6401    2.2834   -0.0003 N.ar    1  LIG1       -0.2358
     21 H          -3.7491    2.7410   -0.0014 H       1  LIG1        0.0644
     22 C          -7.3823    0.0566   -0.0003 C.1     1  LIG1       -0.0491
     23 C          -7.9122   -1.0214   -0.0003 C.1     1  LIG1       -0.1124
     24 H          -8.3842   -1.9816   -0.0003 H       1  LIG1        0.1232
     25 N          -5.2095    4.9322   -0.0004 N.pl3   1  LIG1       -0.3369
     26 H          -4.3276    4.9422   -0.4718 H       1  LIG1        0.1465
     27 H          -5.8464    5.5421   -0.4718 H       1  LIG1        0.0390
     28 C          -7.4241    5.8310   -0.0000 C.ar    1  LIG1        0.0569
     29 C          -7.9061    4.5092   -0.0003 C.ar    1  LIG1        0.0256
     30 C          -9.2869    4.3031   -0.0001 C.ar    1  LIG1       -0.0280
     31 C         -10.1321    5.4140    0.0002 C.ar    1  LIG1        0.0516
     32 C          -9.5548    6.6971    0.0002 C.ar    1  LIG1        0.0946
     33 N          -8.2251    6.9141    0.0002 N.ar    1  LIG1       -0.2487
     34 H          -9.7005    3.2847   -0.0012 H       1  LIG1        0.0644
     35 C          -6.1470    6.0737   -0.0001 C.3     1  LIG1        0.0320
     36 C          -4.9669    6.2980   -0.0002 C.3     1  LIG1        0.0485
     37 H          -3.9157    6.4978   -0.0003 H       1  LIG1        0.0522
     38 N         -11.4247    5.2750    0.0002 N.pl3   1  LIG1       -0.3563
     39 H         -11.8434    6.0512   -0.4712 H       1  LIG1        0.1424
     40 H         -11.6688    4.4276   -0.4713 H       1  LIG1        0.1424
     41 C          -9.7132    9.0408    0.0008 C.ar    1  LIG1        0.1224
     42 C         -10.3001    7.7622    0.0005 C.ar    1  LIG1        0.0377
     43 C         -11.6930    7.6680    0.0008 C.ar    1  LIG1       -0.0277
     44 C         -12.4461    8.8434    0.0012 C.ar    1  LIG1        0.0436
     45 C         -11.7673   10.0758    0.0013 C.ar    1  LIG1        0.0496
     46 N         -10.4244   10.1850    0.0012 N.ar    1  LIG1       -0.2442
     47 H         -12.1874    6.6862   -0.0005 H       1  LIG1        0.0644
     48 H         -12.4244   11.1974    0.0018 H       1  LIG1        0.0849
     49 C          -8.4207    9.1799    0.0006 C.1     1  LIG1       -0.0491
     50 C          -7.2264    9.3084    0.0005 C.1     1  LIG1       -0.1124
     51 H          -6.1625    9.4229    0.0003 H       1  LIG1        0.1232
     52 N         -13.7456    8.8089    0.0013 N.pl3   1  LIG1       -0.3568
     53 H         -14.1005    9.6163   -0.4700 H       1  LIG1        0.1424
     54 H         -14.0573    7.9840   -0.4701 H       1  LIG1        0.1424
@<TRIPOS>BOND
     1    27    35    1
     2    26    25    1
     3    14    12    1
     4    13    12    1
     5    40    38    1
     6    39    38    1
     7    54    52    1
     8    53    52    1
     9    21    17    1
    10    34    30    1
    11     7     3    1
    12    47    43    1
    13    16     5    1
    14    16    15   ar
    15    16    17   ar
    16    19    20   ar
    17    19    29    1
    18    19    18   ar
    19    25    18    1
    20    25    36    1
    21    12     4    1
    22     5     6   ar
    23     5     4   ar
    24    15    22    1
    25    15    20   ar
    26    17    18   ar
    27    22    23    3
    28    23    24    1
    29    29    30   ar
    30    29    28   ar
    31    37    36    1
    32    36    35    1
    33    35    28    1
    34     6     1   ar
    35     4     3   ar
    36    30    31   ar
    37    28    33   ar
    38     1     2   ar
    39     1     9    1
    40     2     3   ar
    41     2     8    1
    42    31    38    1
    43    31    32   ar
    44    32    33   ar
    45    32    42    1
    46     9    10    3
    47    10    11    1
    48    51    50    1
    49    42    43   ar
    50    42    41   ar
    51    50    49    3
    52    49    41    1
    53    43    44   ar
    54    41    46   ar
    55    44    45   ar
    56    44    52    1
    57    46    45   ar
    58    45    48    1
