@<TRIPOS>MOLECULE
mol_data/noopt/geoms/mol2/6eh6eh-6eh-6eh-.out
 54 58 0 0 0
SMALL
GASTEIGER

@<TRIPOS>ATOM
      1 C          -4.5775   -2.0270    0.0001 C.ar    1  LIG1        0.1139
      2 C          -3.1706   -2.0270    0.0001 C.ar    1  LIG1       -0.0260
      3 C          -2.5039   -0.8004    0.0001 C.ar    1  LIG1       -0.0361
      4 C          -3.2580    0.3743   -0.0001 C.ar    1  LIG1        0.0539
      5 C          -4.6612    0.2715   -0.0003 C.ar    1  LIG1        0.0949
      6 N          -5.3207   -0.9034   -0.0001 N.ar    1  LIG1       -0.2365
      7 H          -1.4054   -0.7607   -0.0009 H       1  LIG1        0.0637
      8 H          -2.5135   -3.1487    0.0004 H       1  LIG1        0.0646
      9 C          -5.2431   -3.1437    0.0002 C.1     1  LIG1       -0.0498
     10 C          -5.8581   -4.1755    0.0003 C.1     1  LIG1       -0.1124
     11 H          -6.4059   -5.0946    0.0004 H       1  LIG1        0.1232
     12 N          -2.6846    1.5410   -0.0003 N.pl3   1  LIG1       -0.3369
     13 H          -1.8048    1.4799   -0.4718 H       1  LIG1        0.1465
     14 H          -3.2703    2.2002   -0.4718 H       1  LIG1        0.0390
     15 C          -4.8196    2.6153   -0.0003 C.ar    1  LIG1        0.0569
     16 C          -5.4065    1.3366   -0.0004 C.ar    1  LIG1        0.0256
     17 C          -6.7994    1.2424   -0.0003 C.ar    1  LIG1       -0.0280
     18 C          -7.5524    2.4178   -0.0003 C.ar    1  LIG1        0.0516
     19 C          -6.8736    3.6502   -0.0004 C.ar    1  LIG1        0.0946
     20 N          -5.5307    3.7594   -0.0003 N.ar    1  LIG1       -0.2487
     21 H          -7.2937    0.2606   -0.0014 H       1  LIG1        0.0644
     22 C          -3.5271    2.7543   -0.0003 C.3     1  LIG1        0.0320
     23 C          -2.3328    2.8828   -0.0002 C.3     1  LIG1        0.0485
     24 H          -1.2689    2.9973   -0.0002 H       1  LIG1        0.0522
     25 N          -8.8520    2.3834   -0.0004 N.pl3   1  LIG1       -0.3563
     26 H          -9.2068    3.1908   -0.4718 H       1  LIG1        0.1424
     27 H          -9.1636    1.5584   -0.4719 H       1  LIG1        0.1424
     28 C          -6.8427    5.9991   -0.0000 C.ar    1  LIG1        0.1231
     29 C          -7.5307    4.7719   -0.0003 C.ar    1  LIG1        0.0377
     30 C          -8.9267    4.7902   -0.0001 C.ar    1  LIG1       -0.0270
     31 C          -9.5826    6.0224    0.0002 C.ar    1  LIG1        0.0517
     32 C          -8.8067    7.1961    0.0002 C.ar    1  LIG1        0.0957
     33 N          -7.4594    7.1968    0.0002 N.ar    1  LIG1       -0.2358
     34 H          -9.4985    3.8514   -0.0012 H       1  LIG1        0.0644
     35 C          -5.5432    6.0336   -0.0001 C.1     1  LIG1       -0.0491
     36 C          -4.3424    6.0655   -0.0002 C.1     1  LIG1       -0.1124
     37 H          -3.2728    6.0939   -0.0003 H       1  LIG1        0.1232
     38 N         -10.8807    6.0928    0.0002 N.pl3   1  LIG1       -0.3563
     39 H         -11.1693    6.9261   -0.4712 H       1  LIG1        0.1424
     40 H         -11.2577    5.2955   -0.4713 H       1  LIG1        0.1424
     41 C          -8.5867    9.5349    0.0008 C.ar    1  LIG1        0.1224
     42 C          -9.3714    8.3671    0.0005 C.ar    1  LIG1        0.0377
     43 C         -10.7613    8.4977    0.0008 C.ar    1  LIG1       -0.0277
     44 C         -11.3158    9.7788    0.0012 C.ar    1  LIG1        0.0436
     45 C         -10.4479   10.8862    0.0013 C.ar    1  LIG1        0.0496
     46 N          -9.1049   10.7784    0.0012 N.ar    1  LIG1       -0.2442
     47 H         -11.4069    7.6081   -0.0005 H       1  LIG1        0.0644
     48 H         -10.9164   12.0988    0.0018 H       1  LIG1        0.0849
     49 C          -7.2886    9.4646    0.0006 C.1     1  LIG1       -0.0491
     50 C          -6.0892    9.3996    0.0005 C.1     1  LIG1       -0.1124
     51 H          -5.0208    9.3418    0.0003 H       1  LIG1        0.1232
     52 N         -12.6040    9.9535    0.0014 N.pl3   1  LIG1       -0.3568
     53 H         -12.8246   10.8074   -0.4700 H       1  LIG1        0.1424
     54 H         -13.0441    9.1893   -0.4701 H       1  LIG1        0.1424
@<TRIPOS>BOND
     1    27    25    1
     2    26    25    1
     3    14    22    1
     4    13    12    1
     5    40    38    1
     6    39    38    1
     7    54    52    1
     8    53    52    1
     9    21    17    1
    10    34    30    1
    11     7     3    1
    12    47    43    1
    13    16    17   ar
    14    16     5    1
    15    16    15   ar
    16    25    18    1
    17    19    18   ar
    18    19    29    1
    19    19    20   ar
    20    17    18   ar
    21    12    23    1
    22    12     4    1
    23     5     6   ar
    24     5     4   ar
    25    29    30   ar
    26    29    28   ar
    27    15    20   ar
    28    15    22    1
    29    37    36    1
    30    22    23    1
    31    23    24    1
    32    36    35    3
    33    35    28    1
    34     6     1   ar
    35     4     3   ar
    36    30    31   ar
    37    28    33   ar
    38     1     2   ar
    39     1     9    1
    40     2     3   ar
    41     2     8    1
    42    31    32   ar
    43    31    38    1
    44    32    33   ar
    45    32    42    1
    46     9    10    3
    47    10    11    1
    48    51    50    1
    49    42    43   ar
    50    42    41   ar
    51    50    49    3
    52    49    41    1
    53    43    44   ar
    54    41    46   ar
    55    44    45   ar
    56    44    52    1
    57    46    45   ar
    58    45    48    1
