@<TRIPOS>MOLECULE
mol_data/noopt/geoms/mol2/6eh6ei4fd-13le-.out
 55 54 0 0 0
SMALL
GASTEIGER

@<TRIPOS>ATOM
      1 C          -4.5775   -2.0270    0.0001 C.ar    1  LIG1        0.1139
      2 C          -3.1706   -2.0270    0.0001 C.ar    1  LIG1       -0.0260
      3 C          -2.5039   -0.8004    0.0001 C.ar    1  LIG1       -0.0363
      4 C          -3.2580    0.3743   -0.0001 C.ar    1  LIG1        0.0511
      5 C          -4.6612    0.2715   -0.0003 C.ar    1  LIG1        0.0956
      6 N          -5.3207   -0.9034   -0.0001 N.ar    1  LIG1       -0.2365
      7 H          -1.4054   -0.7607   -0.0009 H       1  LIG1        0.0637
      8 H          -2.5135   -3.1487    0.0004 H       1  LIG1        0.0646
      9 C          -5.2431   -3.1437    0.0002 C.1     1  LIG1       -0.0498
     10 C          -5.8581   -4.1755    0.0003 C.1     1  LIG1       -0.1124
     11 H          -6.4059   -5.0946    0.0004 H       1  LIG1        0.1232
     12 N          -2.6846    1.5410   -0.0003 N.pl3   1  LIG1       -0.3563
     13 H          -1.8048    1.4799   -0.4718 H       1  LIG1        0.1424
     14 H          -3.2703    2.2002   -0.4718 H       1  LIG1        0.1424
     15 C          -6.8088    1.2233   -0.0003 C.ar    1  LIG1        0.1230
     16 C          -5.4065    1.3366   -0.0004 C.ar    1  LIG1        0.0363
     17 C          -4.8408    2.6129   -0.0003 C.ar    1  LIG1       -0.0446
     18 C          -5.6871    3.7231   -0.0003 C.ar    1  LIG1       -0.0207
     19 C          -7.0774    3.5076   -0.0004 C.ar    1  LIG1        0.0723
     20 N          -7.6401    2.2834   -0.0003 N.ar    1  LIG1       -0.2378
     21 H          -3.7491    2.7410   -0.0014 H       1  LIG1        0.0628
     22 C          -7.3823    0.0566   -0.0003 C.1     1  LIG1       -0.0491
     23 C          -7.9122   -1.0214   -0.0003 C.1     1  LIG1       -0.1124
     24 H          -8.3842   -1.9816   -0.0003 H       1  LIG1        0.1232
     25 C          -5.2094    4.9325   -0.0004 C.3     1  LIG1       -0.0216
     26 H          -5.8909    5.5852    0.5040 H       0  HOH0        0.2052
     27 H          -5.0784    5.2642   -1.0092 H       1  LIG1        0.0317
     28 H          -4.2658    4.9433    0.5040 H       1  LIG1        0.0317
     29 C          -7.4121    5.8295    0.0219 C.3     1  LIG1        0.0320
     30 C          -8.3506    6.8796    0.0226 C.3     2  LIG2        0.0000
     31 C          -7.9061    4.5092   -0.0003 C.2     1  LIG1       -0.0116
     32 C          -9.7206    6.6285    0.0015 C.2     1  LIG1        0.0299
     33 H          -7.9910    7.9061    0.0397 H       2  LIG2        0.0194
     34 C          -9.2738    4.2579   -0.0213 C.2     1  LIG1       -0.0379
     35 C         -10.1902    5.3147   -0.0206 C.2     1  LIG1        0.0620
     36 H          -9.6298    3.2310   -0.0381 H       1  LIG1        0.0634
     37 O          -6.1466    6.1266    0.0418 O.3     3  HOH3       -0.4105
     38 H          -6.0415    7.0808    0.0467 H       0  HOH0        0.2052
     39 N         -12.5941    4.8612   -0.0574 N.1     1  LIG1       -0.1908
     40 C         -11.4675    5.0737   -0.0402 C.1     1  LIG1        0.0998
     41 C         -10.5590    7.6221    0.0027 C.ar    1  LIG1        0.0969
     42 C         -10.3373    8.9631    0.0197 C.ar    1  LIG1        0.2193
     43 C         -11.6158    9.6081    0.0132 C.ar    1  LIG1        0.0892
     44 C         -12.5626    8.6328   -0.0093 C.ar    1  LIG1        0.0215
     45 N         -11.9199    7.4154   -0.0153 N.ar    1  LIG1       -0.3564
     46 H         -12.3675    6.5280   -0.0309 H       1  LIG1        0.1655
     47 H         -13.8598    8.7166   -0.0229 H       1  LIG1        0.0820
     48 O          -9.1767    9.5486    0.0399 O.3     1  LIG1       -0.2843
     49 C          -8.1435    8.5600    0.0472 C.3     4  LIG4       -0.0776
     50 H          -7.1885    9.0423    0.0636 H       2  LIG2        0.0194
     51 H          -8.2464    7.9430    0.9153 H       2  LIG2        0.0194
     52 H          -8.2225    7.9550   -0.8318 H       2  LIG2        0.0194
     53 C         -11.8348   10.8895    0.0260 C.1     1  LIG1       -0.0643
     54 C         -12.0371   12.0735    0.0377 C.1     1  LIG1       -0.1137
     55 H         -12.2173   13.1281    0.0482 H       1  LIG1        0.1232
@<TRIPOS>BOND
     1    27    25    1
     2    52    49    1
     3    14    12    1
     4    13    12    1
     5    39    40    3
     6    40    35    1
     7    36    34    1
     8    46    45    1
     9    47    44    1
    10    34    35    1
    11    34    31    2
    12    35    32    2
    13    45    44   ar
    14    45    41   ar
    15    44    43   ar
    16    21    17    1
    17     7     3    1
    18    16     5    1
    19    16    15   ar
    20    16    17   ar
    21    19    20   ar
    22    19    31    1
    23    19    18   ar
    24    25    18    1
    25    25    28    1
    26    12     4    1
    27     5     6   ar
    28     5     4   ar
    29    15    22    1
    30    15    20   ar
    31    17    18   ar
    32    22    23    3
    33    23    24    1
    34    31    29    1
    35     6     1   ar
    36     4     3   ar
    37     1     2   ar
    38     1     9    1
    39     2     3   ar
    40     2     8    1
    41     9    10    3
    42    10    11    1
    43    32    41    1
    44    41    42   ar
    45    43    42   ar
    46    43    53    1
    47    42    48    1
    48    53    54    3
    49    54    55    1
    50    33    49    1
    51    37    38    1
    52    37    26    1
    53    49    50    1
    54    49    51    1
