@<TRIPOS>MOLECULE
mol_data/noopt/geoms/mol2/6eh6dh-4ia-6ae.out
 51 53 0 0 0
SMALL
GASTEIGER

@<TRIPOS>ATOM
      1 C          -4.5775   -2.0270    0.0001 C.ar    1  LIG1        0.1139
      2 C          -3.1706   -2.0270    0.0001 C.ar    1  LIG1       -0.0260
      3 C          -2.5039   -0.8004    0.0001 C.ar    1  LIG1       -0.0363
      4 C          -3.2580    0.3743   -0.0001 C.ar    1  LIG1        0.0511
      5 C          -4.6612    0.2715   -0.0003 C.ar    1  LIG1        0.0957
      6 N          -5.3207   -0.9034   -0.0001 N.ar    1  LIG1       -0.2365
      7 H          -1.4054   -0.7607   -0.0009 H       1  LIG1        0.0637
      8 H          -2.5135   -3.1487    0.0004 H       1  LIG1        0.0646
      9 C          -5.2431   -3.1437    0.0002 C.1     1  LIG1       -0.0498
     10 C          -5.8581   -4.1755    0.0003 C.1     1  LIG1       -0.1124
     11 H          -6.4059   -5.0946    0.0004 H       1  LIG1        0.1232
     12 N          -2.6846    1.5410   -0.0003 N.pl3   1  LIG1       -0.3563
     13 H          -1.8048    1.4799   -0.4718 H       1  LIG1        0.1424
     14 H          -3.2703    2.2002   -0.4718 H       1  LIG1        0.1424
     15 C          -6.8087    1.2234   -0.0215 C.ar    1  LIG1        0.1500
     16 C          -5.4065    1.3366   -0.0004 C.ar    1  LIG1        0.0398
     17 C          -4.8409    2.6128    0.0206 C.ar    1  LIG1       -0.0270
     18 C          -5.6872    3.7230    0.0196 C.ar    1  LIG1        0.0516
     19 C          -7.0774    3.5076   -0.0025 C.ar    1  LIG1        0.0936
     20 N          -7.6400    2.2835   -0.0227 N.ar    1  LIG1       -0.2338
     21 H          -3.7493    2.7408    0.0363 H       1  LIG1        0.0644
     22 N          -7.8877   -0.9721   -0.0588 N.1     1  LIG1       -0.1893
     23 C          -7.3820    0.0568   -0.0413 C.1     1  LIG1        0.1198
     24 N          -5.2098    4.9320    0.0384 N.pl3   1  LIG1       -0.3563
     25 H          -4.3254    4.9484   -0.4281 H       1  LIG1        0.1424
     26 H          -5.8442    5.5482   -0.4282 H       1  LIG1        0.0227
     27 C          -7.4121    5.8296    0.0169 C.ar    1  LIG1       -0.0074
     28 C          -8.3505    6.8797    0.0156 C.ar    1  LIG1       -0.0456
     29 C          -7.9061    4.5092   -0.0043 C.ar    1  LIG1        0.0099
     30 C          -9.7206    6.6286   -0.0064 C.ar    1  LIG1       -0.0158
     31 H          -7.9910    7.9061    0.0319 H       1  LIG1        0.0630
     32 C          -9.2737    4.2579   -0.0262 C.ar    1  LIG1       -0.0513
     33 C         -10.1901    5.3147   -0.0276 C.ar    1  LIG1       -0.0533
     34 H          -9.6297    3.2310   -0.0422 H       1  LIG1        0.0624
     35 C          -6.1464    6.1267    0.0377 C.3     2  LIG2       -0.0681
     36 H          -6.0067    7.0569    0.5477 H       1  LIG1        0.0227
     37 H          -5.7835    6.2119   -0.9654 H       1  LIG1        0.0227
     38 H          -5.6074    5.3557    0.5476 H       1  LIG1        0.1424
     39 H         -11.4675    5.0737   -0.0480 H       1  LIG1        0.0624
     40 C         -11.9453    7.3827   -0.0072 C.ar    1  LIG1        0.0353
     41 C         -10.5590    7.6221   -0.0070 C.ar    1  LIG1        0.0014
     42 C         -10.1107    8.9443   -0.0072 C.ar    1  LIG1       -0.0357
     43 C         -11.0537    9.9735   -0.0078 C.ar    1  LIG1        0.0433
     44 C         -12.4189    9.6335   -0.0082 C.ar    1  LIG1        0.0430
     45 N         -12.8689    8.3635   -0.0078 N.ar    1  LIG1       -0.2614
     46 H          -9.0350    9.1703   -0.0081 H       1  LIG1        0.0637
     47 H         -13.3346   10.5562   -0.0086 H       1  LIG1        0.0842
     48 H         -12.4112    6.1691   -0.0070 H       1  LIG1        0.0836
     49 C         -10.6871   11.2208   -0.0082 C.1     1  LIG1       -0.0681
     50 C         -10.3485   12.3732   -0.0086 C.1     1  LIG1       -0.1139
     51 H         -10.0468   13.3998   -0.0089 H       1  LIG1        0.1232
@<TRIPOS>BOND
     1    37    35    1
     2    14    12    1
     3    13    12    1
     4    26    35    1
     5    25    24    1
     6    22    23    3
     7    39    33    1
     8    34    32    1
     9    23    15    1
    10    33    32   ar
    11    33    30   ar
    12    32    29   ar
    13    20    15   ar
    14    20    19   ar
    15    15    16   ar
    16    51    50    1
    17    47    44    1
    18    50    49    3
    19    49    43    1
    20    44    43   ar
    21    44    45   ar
    22    46    42    1
    23    43    42   ar
    24    45    40   ar
    25    42    41   ar
    26    40    41   ar
    27    40    48    1
    28    41    30    1
    29    30    28   ar
    30    29    19    1
    31    29    27   ar
    32    19    18   ar
    33     7     3    1
    34    16     5    1
    35    16    17   ar
    36     5     4   ar
    37     5     6   ar
    38    12     4    1
    39     4     3   ar
    40     6     1   ar
    41     1     2   ar
    42     1     9    1
    43     2     3   ar
    44     2     8    1
    45     9    10    3
    46    10    11    1
    47    28    27   ar
    48    28    31    1
    49    18    17   ar
    50    18    24    1
    51    17    21    1
    52    35    36    1
    53    24    38    1
