@<TRIPOS>MOLECULE
mol_data/noopt/geoms/mol2/6ei13dl(190)4ld(90)12fi(270).out
 55 58 0 0 0
SMALL
GASTEIGER

@<TRIPOS>ATOM
      1 C          -4.5775   -2.0270    0.0001 C.ar    1  LIG1        0.1139
      2 C          -3.1706   -2.0270    0.0001 C.ar    1  LIG1       -0.0275
      3 C          -2.5039   -0.8004    0.0001 C.ar    1  LIG1       -0.0541
      4 C          -3.2580    0.3743   -0.0001 C.ar    1  LIG1       -0.0229
      5 C          -4.6612    0.2715   -0.0003 C.ar    1  LIG1        0.0928
      6 N          -5.3207   -0.9034   -0.0001 N.ar    1  LIG1       -0.2367
      7 H          -1.4054   -0.7607   -0.0009 H       1  LIG1        0.0622
      8 H          -2.5135   -3.1487    0.0004 H       1  LIG1        0.0645
      9 C          -5.2431   -3.1437    0.0002 C.1     1  LIG1       -0.0498
     10 C          -5.8581   -4.1755    0.0003 C.1     1  LIG1       -0.1124
     11 H          -6.4059   -5.0946    0.0004 H       1  LIG1        0.1232
     12 C          -2.6845    1.5413   -0.0003 C.3     1  LIG1       -0.0376
     13 H          -3.3112    2.2468    0.5041 H       1  LIG1        0.0278
     14 H          -2.5273    1.8613   -1.0092 H       1  LIG1        0.0278
     15 H          -1.7430    1.4761    0.5040 H       1  LIG1        0.0278
     16 C          -5.4065    1.3366   -0.0004 C.ar    1  LIG1        0.0869
     17 C          -6.7489    1.4738   -0.1656 C.ar    1  LIG1        0.1206
     18 C          -7.0501    2.8709   -0.0772 C.ar    1  LIG1        0.1633
     19 C          -5.8789    3.5260    0.1399 C.ar    1  LIG1        0.0941
     20 N          -4.8700    2.5905    0.1871 N.ar    1  LIG1       -0.3489
     21 H          -3.9071    2.7888    0.3340 H       1  LIG1        0.1661
     22 N          -8.3490   -0.3374   -0.5465 N.1     1  LIG1       -0.1907
     23 C          -7.5991    0.5114   -0.3680 C.1     1  LIG1        0.1050
     24 O          -8.2255    3.4161   -0.1839 O.3     1  LIG1       -0.4917
     25 C          -8.0898    4.8391   -0.2231 C.3     1  LIG1        0.0789
     26 H          -9.0574    5.2874   -0.3111 H       1  LIG1        0.0660
     27 H          -7.6204    5.1776    0.6769 H       1  LIG1        0.0660
     28 H          -7.4901    5.1172   -1.0645 H       1  LIG1        0.0660
     29 C          -5.5333    5.3421    1.5843 C.ar    1  LIG1        0.1300
     30 C          -5.2717    6.7216    1.6927 C.ar    1  LIG1       -0.0073
     31 C          -5.6370    4.7945    0.2892 C.ar    1  LIG1        0.0448
     32 C          -5.1192    7.5223    0.5630 C.ar    1  LIG1        0.0417
     33 H          -5.1880    7.1647    2.6826 H       1  LIG1        0.0662
     34 C          -5.4848    5.5934   -0.8389 C.ar    1  LIG1       -0.0309
     35 C          -5.2249    6.9618   -0.7105 C.ar    1  LIG1        0.0634
     36 H          -5.5693    5.1475   -1.8267 H       1  LIG1        0.0638
     37 O          -5.6656    4.6467    2.6747 O.3     1  LIG1       -0.4944
     38 C          -7.0384    4.6433    3.0750 C.3     1  LIG1        0.0788
     39 H          -7.1468    4.0707    3.9725 H       1  LIG1        0.0660
     40 H          -7.3609    5.6481    3.2519 H       1  LIG1        0.0660
     41 H          -7.6347    4.2085    2.3003 H       1  LIG1        0.0660
     42 N          -4.9592    8.3580   -2.7019 N.1     1  LIG1       -0.1908
     43 C          -5.0837    7.7036   -1.7686 C.1     1  LIG1        0.0999
     44 C          -4.8783    8.7924    0.6999 C.ar    1  LIG1        0.1776
     45 C          -4.6771    9.8533   -0.1587 C.ar    1  LIG1        0.1656
     46 C          -4.4557   11.0206    0.6691 C.ar    1  LIG1        0.0294
     47 C          -4.5364   10.5955    1.9792 C.ar    1  LIG1        0.0991
     48 O          -4.7964    9.2253    2.0241 O.2     1  LIG1       -0.4588
     49 H          -4.4291   11.1610    3.1448 H       1  LIG1        0.1033
     50 O          -4.6802    9.8365   -1.4586 O.3     1  LIG1       -0.5030
     51 H          -3.7908    9.6689   -1.7790 H       1  LIG1        0.2923
     52 C          -4.2272   12.2250    0.2353 C.3     1  LIG1       -0.0332
     53 H          -4.9916   12.8835    0.5918 H       1  LIG1        0.0280
     54 H          -4.2274   12.2247   -0.8347 H       1  LIG1        0.0280
     55 H          -3.2749   12.5578    0.5918 H       1  LIG1        0.0280
@<TRIPOS>BOND
     1    42    43    3
     2    36    34    1
     3    51    50    1
     4    43    35    1
     5    50    45    1
     6    28    25    1
     7    14    12    1
     8    34    35   ar
     9    34    31   ar
    10    54    52    1
    11    35    32   ar
    12    22    23    3
    13    23    17    1
    14    26    25    1
    15    25    24    1
    16    25    27    1
    17    24    18    1
    18    17    18   ar
    19    17    16   ar
    20    45    46   ar
    21    45    44   ar
    22    18    19   ar
    23     7     3    1
    24    16     5    1
    25    16    20   ar
    26    12     4    1
    27    12    15    1
    28    12    13    1
    29     5     6   ar
    30     5     4   ar
    31     6     1   ar
    32     4     3   ar
    33     1     2   ar
    34     1     9    1
    35     2     3   ar
    36     2     8    1
    37     9    10    3
    38    10    11    1
    39    19    20   ar
    40    19    31    1
    41    20    21    1
    42    52    55    1
    43    52    53    1
    44    52    46    1
    45    31    29   ar
    46    32    44    1
    47    32    30   ar
    48    46    47   ar
    49    44    48   ar
    50    29    30   ar
    51    29    37    1
    52    30    33    1
    53    47    48   ar
    54    47    49    1
    55    41    38    1
    56    37    38    1
    57    38    40    1
    58    38    39    1
