@<TRIPOS>MOLECULE
mol_data/noopt/geoms/mol2/6ei13ef(120)4ed(250)12hl(10).out
 53 56 0 0 0
SMALL
GASTEIGER

@<TRIPOS>ATOM
      1 C          -4.5775   -2.0270    0.0001 C.ar    1  LIG1        0.1139
      2 C          -3.1706   -2.0270    0.0001 C.ar    1  LIG1       -0.0275
      3 C          -2.5039   -0.8004    0.0001 C.ar    1  LIG1       -0.0541
      4 C          -3.2580    0.3743   -0.0001 C.ar    1  LIG1       -0.0229
      5 C          -4.6612    0.2715   -0.0003 C.ar    1  LIG1        0.0927
      6 N          -5.3207   -0.9034   -0.0001 N.ar    1  LIG1       -0.2367
      7 H          -1.4054   -0.7607   -0.0009 H       1  LIG1        0.0622
      8 H          -2.5135   -3.1487    0.0004 H       1  LIG1        0.0645
      9 C          -5.2431   -3.1437    0.0002 C.1     1  LIG1       -0.0498
     10 C          -5.8581   -4.1755    0.0003 C.1     1  LIG1       -0.1124
     11 H          -6.4059   -5.0946    0.0004 H       1  LIG1        0.1232
     12 C          -2.6845    1.5413   -0.0003 C.3     1  LIG1       -0.0376
     13 H          -3.3112    2.2468    0.5041 H       1  LIG1        0.0278
     14 H          -2.5273    1.8613   -1.0092 H       1  LIG1        0.0278
     15 H          -1.7430    1.4761    0.5040 H       1  LIG1        0.0278
     16 C          -5.4065    1.3366   -0.0004 C.ar    1  LIG1        0.0849
     17 C          -6.3624    1.7443    0.8760 C.ar    1  LIG1        0.0934
     18 C          -6.8742    2.9940    0.3998 C.ar    1  LIG1        0.1581
     19 C          -6.2075    3.2960   -0.7457 C.ar    1  LIG1        0.0914
     20 N          -5.3083    2.2837   -0.9947 N.ar    1  LIG1       -0.3490
     21 H          -4.6864    2.2433   -1.7690 H       1  LIG1        0.1661
     22 C          -6.7405    1.1124    1.9473 C.1     1  LIG1       -0.0638
     23 C          -7.0900    0.5286    2.9372 C.1     1  LIG1       -0.1137
     24 H          -7.4013    0.0085    3.8190 H       1  LIG1        0.1232
     25 O          -7.8045    3.7108    0.9575 O.3     1  LIG1       -0.5035
     26 H          -8.5861    3.1706    1.0950 H       1  LIG1        0.2923
     27 C          -6.7156    4.1297   -2.8789 C.ar    1  LIG1        0.0346
     28 C          -6.8167    5.2698   -3.6995 C.ar    1  LIG1       -0.0337
     29 C          -6.3160    4.3191   -1.5402 C.ar    1  LIG1        0.0185
     30 C          -6.5334    6.5431   -3.2108 C.ar    1  LIG1        0.0377
     31 H          -7.1232    5.1462   -4.7358 H       1  LIG1        0.0637
     32 C          -6.0330    5.5902   -1.0518 C.ar    1  LIG1       -0.0332
     33 C          -6.1396    6.7104   -1.8826 C.ar    1  LIG1        0.0632
     34 H          -5.7267    5.7102   -0.0157 H       1  LIG1        0.0637
     35 C          -6.9933    2.9679   -3.3918 C.1     1  LIG1       -0.0690
     36 C          -7.2498    1.8944   -3.8658 C.1     1  LIG1       -0.1139
     37 H          -7.4783    0.9381   -4.2879 H       1  LIG1        0.1232
     38 N          -5.6392    8.9418   -1.0129 N.1     1  LIG1       -0.1908
     39 C          -5.8737    7.8960   -1.4205 C.1     1  LIG1        0.0999
     40 C          -6.6371    7.5738   -3.9962 C.ar    1  LIG1        0.1603
     41 C          -5.7732    8.5380   -4.4727 C.ar    1  LIG1        0.1133
     42 C          -6.5545    9.4107   -5.3241 C.ar    1  LIG1        0.1789
     43 C          -7.8446    8.9216   -5.3115 C.ar    1  LIG1        0.1360
     44 O          -7.9207    7.7893   -4.4999 O.2     1  LIG1       -0.4572
     45 H          -8.9701    9.2632   -5.8652 H       1  LIG1        0.1068
     46 N          -4.5036    8.6624   -4.2227 N.pl3   1  LIG1       -0.3522
     47 H          -4.0082    7.8905   -4.6212 H       1  LIG1        0.1425
     48 H          -4.1674    9.5157   -4.6212 H       1  LIG1        0.1425
     49 O          -6.1023   10.4477   -5.9648 O.3     1  LIG1       -0.4901
     50 C          -4.7007   10.2895   -6.2000 C.3     1  LIG1        0.0790
     51 H          -4.3290   11.1431   -6.7274 H       1  LIG1        0.0660
     52 H          -4.1900   10.1983   -5.2641 H       1  LIG1        0.0660
     53 H          -4.5343    9.4089   -6.7844 H       1  LIG1        0.0660
@<TRIPOS>BOND
     1    53    50    1
     2    51    50    1
     3    50    49    1
     4    50    52    1
     5    49    42    1
     6    45    43    1
     7    42    43   ar
     8    42    41   ar
     9    43    44   ar
    10    31    28    1
    11    48    46    1
    12    47    46    1
    13    44    40   ar
    14    41    46    1
    15    41    40   ar
    16    37    36    1
    17    40    30    1
    18    36    35    3
    19    28    30   ar
    20    28    27   ar
    21    35    27    1
    22    30    33   ar
    23    27    29   ar
    24    33    39    1
    25    33    32   ar
    26    21    20    1
    27    29    32   ar
    28    29    19    1
    29    39    38    3
    30    32    34    1
    31    14    12    1
    32    20    19   ar
    33    20    16   ar
    34    19    18   ar
    35     7     3    1
    36    16     5    1
    37    16    17   ar
    38    12     4    1
    39    12    15    1
    40    12    13    1
    41     5     6   ar
    42     5     4   ar
    43     6     1   ar
    44     4     3   ar
    45     2     3   ar
    46     2     1   ar
    47     2     8    1
    48     1     9    1
    49     9    10    3
    50    10    11    1
    51    18    17   ar
    52    18    25    1
    53    17    22    1
    54    25    26    1
    55    22    23    3
    56    23    24    1
