@<TRIPOS>MOLECULE
mol_data/noopt/geoms/mol2/6ei13ff(120)12le(40)4al(260).out
 53 56 0 0 0
SMALL
GASTEIGER

@<TRIPOS>ATOM
      1 C          -4.5775   -2.0270    0.0001 C.ar    1  LIG1        0.1139
      2 C          -3.1706   -2.0270    0.0001 C.ar    1  LIG1       -0.0275
      3 C          -2.5039   -0.8004    0.0001 C.ar    1  LIG1       -0.0541
      4 C          -3.2580    0.3743   -0.0001 C.ar    1  LIG1       -0.0228
      5 C          -4.6612    0.2715   -0.0003 C.ar    1  LIG1        0.0951
      6 N          -5.3207   -0.9034   -0.0001 N.ar    1  LIG1       -0.2366
      7 H          -1.4054   -0.7607   -0.0009 H       1  LIG1        0.0622
      8 H          -2.5135   -3.1487    0.0004 H       1  LIG1        0.0645
      9 C          -5.2431   -3.1437    0.0002 C.1     1  LIG1       -0.0498
     10 C          -5.8581   -4.1755    0.0003 C.1     1  LIG1       -0.1124
     11 H          -6.4059   -5.0946    0.0004 H       1  LIG1        0.1232
     12 C          -2.6845    1.5413   -0.0003 C.3     1  LIG1       -0.0376
     13 H          -3.3112    2.2468    0.5041 H       1  LIG1        0.0278
     14 H          -2.5273    1.8613   -1.0092 H       1  LIG1        0.0278
     15 H          -1.7430    1.4761    0.5040 H       1  LIG1        0.0278
     16 C          -5.4065    1.3366   -0.0004 C.ar    1  LIG1        0.1115
     17 C          -6.3624    1.7443    0.8760 C.ar    1  LIG1        0.1864
     18 C          -6.8742    2.9940    0.3998 C.ar    1  LIG1        0.1880
     19 C          -6.2075    3.2960   -0.7457 C.ar    1  LIG1        0.1320
     20 N          -5.3083    2.2837   -0.9947 N.ar    1  LIG1       -0.3446
     21 H          -4.6864    2.2433   -1.7690 H       1  LIG1        0.1663
     22 O          -6.7406    1.1124    1.9474 O.3     1  LIG1       -0.5019
     23 H          -6.0573    0.4919    2.2114 H       1  LIG1        0.2924
     24 O          -7.8045    3.7108    0.9575 O.3     1  LIG1       -0.5018
     25 H          -8.5861    3.1706    1.0950 H       1  LIG1        0.2924
     26 C          -6.3160    4.3192   -1.5402 C.ar    1  LIG1        0.1981
     27 C          -5.6598    5.5236   -1.6877 C.ar    1  LIG1        0.1833
     28 C          -6.2984    6.2116   -2.7904 C.ar    1  LIG1        0.1127
     29 C          -7.3029    5.3815   -3.2438 C.ar    1  LIG1        0.1549
     30 O          -7.3335    4.2084   -2.4889 O.2     1  LIG1       -0.4482
     31 O          -4.6620    5.9770   -0.9885 O.3     1  LIG1       -0.4901
     32 C          -3.7380    4.9162   -0.7319 C.3     1  LIG1        0.0790
     33 H          -2.9168    5.2898   -0.1565 H       1  LIG1        0.0660
     34 H          -4.2306    4.1381   -0.1869 H       1  LIG1        0.0660
     35 H          -3.3752    4.5268   -1.6601 H       1  LIG1        0.0660
     36 C          -5.9688    7.3842   -3.2446 C.1     1  LIG1       -0.0622
     37 C          -5.6643    8.4677   -3.6644 C.1     1  LIG1       -0.1137
     38 H          -5.3930    9.4328   -4.0383 H       1  LIG1        0.1232
     39 C          -7.8286    5.2037   -5.5232 C.ar    1  LIG1       -0.0508
     40 C          -8.8361    5.2801   -6.5043 C.ar    1  LIG1       -0.0576
     41 C          -8.1991    5.4398   -4.1835 C.ar    1  LIG1        0.0221
     42 C         -10.1549    5.5777   -6.1685 C.ar    1  LIG1       -0.0199
     43 H          -8.5720    5.1016   -7.5442 H       1  LIG1        0.0619
     44 C          -9.5156    5.7369   -3.8478 C.ar    1  LIG1       -0.0093
     45 C         -10.5022    5.8079   -4.8368 C.ar    1  LIG1        0.1208
     46 H          -9.7762    5.9151   -2.8076 H       1  LIG1        0.0661
     47 H         -11.0598    5.6401   -7.0999 H       1  LIG1        0.0654
     48 H          -6.6161    4.9218   -5.8979 H       1  LIG1        0.0625
     49 O         -11.7312    6.0863   -4.5169 O.3     1  LIG1       -0.4951
     50 C         -11.8846    7.5031   -4.3996 C.3     1  LIG1        0.0788
     51 H         -12.8963    7.7318   -4.1365 H       1  LIG1        0.0660
     52 H         -11.2267    7.8715   -3.6403 H       1  LIG1        0.0660
     53 H         -11.6457    7.9664   -5.3340 H       1  LIG1        0.0660
@<TRIPOS>BOND
     1    43    40    1
     2    47    42    1
     3    40    42   ar
     4    40    39   ar
     5    42    45   ar
     6    48    39    1
     7    39    41   ar
     8    53    50    1
     9    45    49    1
    10    45    44   ar
    11    49    50    1
    12    50    51    1
    13    50    52    1
    14    41    44   ar
    15    41    29    1
    16    38    37    1
    17    44    46    1
    18    37    36    3
    19    36    28    1
    20    29    28   ar
    21    29    30   ar
    22    28    27   ar
    23    30    26   ar
    24    21    20    1
    25    27    26   ar
    26    27    31    1
    27    35    32    1
    28    26    19    1
    29    14    12    1
    30    20    19   ar
    31    20    16   ar
    32    31    32    1
    33    19    18   ar
    34    32    34    1
    35    32    33    1
    36     7     3    1
    37    16     5    1
    38    16    17   ar
    39     5     6   ar
    40     5     4   ar
    41    12     4    1
    42    12    15    1
    43    12    13    1
    44     6     1   ar
    45     4     3   ar
    46     2     3   ar
    47     2     1   ar
    48     2     8    1
    49     1     9    1
    50     9    10    3
    51    10    11    1
    52    18    17   ar
    53    18    24    1
    54    17    22    1
    55    24    25    1
    56    22    23    1
