@<TRIPOS>MOLECULE
mol_data/noopt/geoms/mol2/6ei12ei(80)13lh(210)13da(260).out
 51 54 0 0 0
SMALL
GASTEIGER

@<TRIPOS>ATOM
      1 C          -4.5775   -2.0270    0.0001 C.ar    1  LIG1        0.1139
      2 C          -3.1706   -2.0270    0.0001 C.ar    1  LIG1       -0.0275
      3 C          -2.5039   -0.8004    0.0001 C.ar    1  LIG1       -0.0541
      4 C          -3.2580    0.3743   -0.0001 C.ar    1  LIG1       -0.0213
      5 C          -4.6612    0.2715   -0.0003 C.ar    1  LIG1        0.1115
      6 N          -5.3207   -0.9034   -0.0001 N.ar    1  LIG1       -0.2350
      7 H          -1.4054   -0.7607   -0.0009 H       1  LIG1        0.0622
      8 H          -2.5135   -3.1487    0.0004 H       1  LIG1        0.0645
      9 C          -5.2431   -3.1437    0.0002 C.1     1  LIG1       -0.0498
     10 C          -5.8581   -4.1755    0.0003 C.1     1  LIG1       -0.1124
     11 H          -6.4059   -5.0946    0.0004 H       1  LIG1        0.1232
     12 C          -2.6845    1.5413   -0.0003 C.3     1  LIG1       -0.0376
     13 H          -3.3112    2.2468    0.5041 H       1  LIG1        0.0278
     14 H          -2.5273    1.8613   -1.0092 H       1  LIG1        0.0278
     15 H          -1.7430    1.4761    0.5040 H       1  LIG1        0.0278
     16 C          -5.4065    1.3366   -0.0004 C.ar    1  LIG1        0.1697
     17 C          -5.8139    2.2518    0.9480 C.ar    1  LIG1        0.0754
     18 C          -6.6541    3.2123    0.2635 C.ar    1  LIG1        0.0130
     19 C          -6.7043    2.8201   -1.0584 C.ar    1  LIG1        0.1596
     20 O          -5.9428    1.6661   -1.2460 O.2     1  LIG1       -0.4501
     21 C          -5.5172    2.2719    2.2135 C.1     1  LIG1       -0.0655
     22 C          -5.2430    2.2904    3.3828 C.1     1  LIG1       -0.1138
     23 H          -4.9988    2.3069    4.4244 H       1  LIG1        0.1232
     24 C          -7.2363    4.2371    0.8128 C.3     1  LIG1       -0.0349
     25 H          -8.0503    3.9014    1.4207 H       1  LIG1        0.0279
     26 H          -7.6065    4.8887    0.0491 H       1  LIG1        0.0279
     27 H          -6.5310    4.7644    1.4206 H       1  LIG1        0.0279
     28 C          -7.2804    3.2653   -2.1354 C.ar    1  LIG1        0.1269
     29 C          -7.9122    2.5987   -3.1376 C.ar    1  LIG1        0.1695
     30 C          -8.3644    3.5753   -4.0823 C.ar    1  LIG1        0.0947
     31 C          -7.9905    4.7959   -3.6150 C.ar    1  LIG1        0.0893
     32 N          -7.3262    4.6107   -2.4235 N.ar    1  LIG1       -0.3461
     33 H          -6.9413    5.3337   -1.8603 H       1  LIG1        0.1662
     34 O          -8.0730    1.3113   -3.2204 O.3     1  LIG1       -0.4910
     35 C          -9.4696    1.0057   -3.2509 C.3     1  LIG1        0.0790
     36 H          -9.6015   -0.0540   -3.3193 H       1  LIG1        0.0660
     37 H          -9.9332    1.3658   -2.3562 H       1  LIG1        0.0660
     38 H          -9.9194    1.4765   -4.0999 H       1  LIG1        0.0660
     39 N          -9.0133    3.3417   -5.1842 N.pl3   1  LIG1       -0.3534
     40 H          -9.0802    4.1854   -5.7169 H       1  LIG1        0.1425
     41 H          -8.5272    2.6489   -5.7169 H       1  LIG1        0.1425
     42 C          -8.1711    5.9822   -4.1152 C.ar    1  LIG1        0.0824
     43 C          -8.4278    6.3711   -5.3922 C.ar    1  LIG1        0.0784
     44 C          -8.5368    7.7990   -5.3906 C.ar    1  LIG1       -0.0263
     45 C          -8.3437    8.2196   -4.1123 C.ar    1  LIG1        0.0035
     46 N          -8.1190    7.1105   -3.3283 N.ar    1  LIG1       -0.3584
     47 H          -7.9471    7.1226   -2.3493 H       1  LIG1        0.1654
     48 H          -8.3469    9.4183   -3.6091 H       1  LIG1        0.0807
     49 N          -8.6569    4.8977   -7.3318 N.1     1  LIG1       -0.1908
     50 C          -8.5495    5.5882   -6.4228 C.1     1  LIG1        0.1013
     51 H          -8.7766    8.5566   -6.4194 H       1  LIG1        0.0645
@<TRIPOS>BOND
     1    49    50    3
     2    50    43    1
     3    51    44    1
     4    41    39    1
     5    40    39    1
     6    43    44   ar
     7    43    42   ar
     8    44    45   ar
     9    39    30    1
    10    42    31    1
    11    42    46   ar
    12    45    48    1
    13    45    46   ar
    14    38    35    1
    15    30    31   ar
    16    30    29   ar
    17    31    32   ar
    18    46    47    1
    19    36    35    1
    20    35    34    1
    21    35    37    1
    22    34    29    1
    23    29    28   ar
    24    32    28   ar
    25    32    33    1
    26    28    19    1
    27    20    19   ar
    28    20    16   ar
    29    19    18   ar
    30    14    12    1
    31     7     3    1
    32    16     5    1
    33    16    17   ar
    34    12     4    1
    35    12    15    1
    36    12    13    1
    37     5     6   ar
    38     5     4   ar
    39     6     1   ar
    40     4     3   ar
    41     1     2   ar
    42     1     9    1
    43     2     3   ar
    44     2     8    1
    45     9    10    3
    46    10    11    1
    47    26    24    1
    48    18    24    1
    49    18    17   ar
    50    24    27    1
    51    24    25    1
    52    17    21    1
    53    21    22    3
    54    22    23    1
