@<TRIPOS>MOLECULE
mol_data/noopt/geoms/mol2/6ei4fe-12hh-6hl-.out
 55 57 0 0 0
SMALL
GASTEIGER

@<TRIPOS>ATOM
      1 C          -4.5775   -2.0270    0.0001 C.ar    1  LIG1        0.1138
      2 C          -3.1706   -2.0270    0.0001 C.ar    1  LIG1       -0.0275
      3 C          -2.5039   -0.8004    0.0001 C.ar    1  LIG1       -0.0539
      4 C          -3.2580    0.3743   -0.0001 C.ar    1  LIG1       -0.0210
      5 C          -4.6612    0.2715   -0.0003 C.ar    1  LIG1        0.0762
      6 N          -5.3207   -0.9034   -0.0001 N.ar    1  LIG1       -0.2381
      7 H          -1.4054   -0.7607   -0.0009 H       1  LIG1        0.0622
      8 H          -2.5135   -3.1487    0.0004 H       1  LIG1        0.0645
      9 C          -5.2431   -3.1437    0.0002 C.1     1  LIG1       -0.0498
     10 C          -5.8581   -4.1755    0.0003 C.1     1  LIG1       -0.1124
     11 H          -6.4059   -5.0946    0.0004 H       1  LIG1        0.1232
     12 C          -2.6845    1.5413   -0.0003 C.3     1  LIG1       -0.0216
     13 H          -3.3112    2.2468    0.5041 H       0  HOH0        0.2052
     14 H          -2.5273    1.8613   -1.0092 H       1  LIG1        0.0317
     15 H          -1.7430    1.4761    0.5040 H       1  LIG1        0.0317
     16 C          -4.8078    2.6129    0.0216 C.ar    1  LIG1       -0.0073
     17 C          -5.6586    3.7351    0.0221 C.ar    1  LIG1       -0.0415
     18 C          -5.4065    1.3366   -0.0004 C.ar    1  LIG1        0.0096
     19 C          -7.0444    3.5952    0.0010 C.ar    1  LIG1        0.0351
     20 H          -5.2175    4.7293    0.0391 H       1  LIG1        0.0631
     21 C          -6.7900    1.1963   -0.0215 C.ar    1  LIG1       -0.0359
     22 C          -7.6183    2.3234   -0.0211 C.ar    1  LIG1        0.0360
     23 H          -7.2275    0.2014   -0.0382 H       1  LIG1        0.0637
     24 O          -3.5225    2.8070    0.0417 O.3     2  HOH2       -0.4105
     25 H          -3.3409    3.7497    0.0466 H       0  HOH0        0.2052
     26 C          -8.9109    2.1862   -0.0407 C.1     1  LIG1       -0.0689
     27 C         -10.1052    2.0593   -0.0588 C.1     1  LIG1       -0.1139
     28 H         -11.1691    1.9463   -0.0750 H       1  LIG1        0.1232
     29 C          -7.8001    4.6530    0.0019 C.ar    1  LIG1        0.1593
     30 C          -7.5845    6.0155    0.0175 C.ar    1  LIG1        0.0926
     31 C          -8.8899    6.6421    0.0078 C.ar    1  LIG1        0.0927
     32 C          -9.8170    5.6205   -0.0132 C.ar    1  LIG1        0.1615
     33 O          -9.1695    4.3846   -0.0172 O.2     1  LIG1       -0.4509
     34 N          -6.4448    6.6406    0.0372 N.pl3   1  LIG1       -0.3536
     35 H          -5.7537    6.0884   -0.4291 H       1  LIG1        0.1425
     36 H          -6.5389    7.5202   -0.4291 H       1  LIG1        0.1425
     37 N          -9.1159    7.9223    0.0172 N.pl3   1  LIG1       -0.3536
     38 H          -8.3704    8.3959   -0.4518 H       1  LIG1        0.1425
     39 H          -9.9785    8.1120   -0.4518 H       1  LIG1        0.1425
     40 C         -11.7566    4.2960   -0.0593 C.ar    1  LIG1        0.1272
     41 C         -11.1149    5.5477   -0.0294 C.ar    1  LIG1        0.0621
     42 C         -11.9023    6.7005   -0.0175 C.ar    1  LIG1       -0.0044
     43 C         -13.2915    6.5656   -0.0358 C.ar    1  LIG1        0.1389
     44 C         -13.8401    5.2703   -0.0656 C.ar    1  LIG1        0.0713
     45 N         -13.0954    4.1475   -0.0774 N.ar    1  LIG1       -0.2364
     46 H         -11.4365    7.6959    0.0048 H       1  LIG1        0.0663
     47 H         -15.1278    5.0932   -0.0835 H       1  LIG1        0.0868
     48 N         -11.0665    3.1944   -0.0714 N.pl3   1  LIG1       -0.3426
     49 H         -11.5838    2.4822   -0.5459 H       1  LIG1        0.1437
     50 H         -10.2000    3.3490   -0.5459 H       1  LIG1        0.1437
     51 O         -14.0682    7.6081   -0.0259 O.3     1  LIG1       -0.4936
     52 C         -13.2724    8.7961   -0.0223 C.3     1  LIG1        0.0789
     53 H         -13.9120    9.6539   -0.0143 H       1  LIG1        0.0660
     54 H         -12.6509    8.8066    0.8487 H       1  LIG1        0.0660
     55 H         -12.6587    8.8170   -0.8986 H       1  LIG1        0.0660
@<TRIPOS>BOND
     1    14    12    1
     2    55    52    1
     3    50    48    1
     4    49    48    1
     5    39    37    1
     6    38    37    1
     7    36    34    1
     8    35    34    1
     9    47    44    1
    10    45    44   ar
    11    45    40   ar
    12    28    27    1
    13    48    40    1
    14    44    43   ar
    15    40    41   ar
    16    27    26    3
    17    26    22    1
    18    23    21    1
    19    43    51    1
    20    43    42   ar
    21    41    42   ar
    22    41    32    1
    23    51    52    1
    24    52    53    1
    25    52    54    1
    26    21    22   ar
    27    21    18   ar
    28    22    19   ar
    29    42    46    1
    30    33    32   ar
    31    33    29   ar
    32    32    31   ar
    33     7     3    1
    34    18     5    1
    35    18    16   ar
    36     5     6   ar
    37     5     4   ar
    38    12     4    1
    39    12    15    1
    40     6     1   ar
    41     4     3   ar
    42     2     3   ar
    43     2     1   ar
    44     2     8    1
    45     1     9    1
    46     9    10    3
    47    10    11    1
    48    19    29    1
    49    19    17   ar
    50    29    30   ar
    51    31    37    1
    52    31    30   ar
    53    30    34    1
    54    16    17   ar
    55    17    20    1
    56    24    25    1
    57    24    13    1
