@<TRIPOS>MOLECULE
mol_data/noopt/geoms/mol2/6ei6ei6ei.out
 44 46 0 0 0
SMALL
GASTEIGER

@<TRIPOS>ATOM
      1 C          -4.5775   -2.0270    0.0001 C.ar    1  LIG1        0.1138
      2 C          -3.1706   -2.0270    0.0001 C.ar    1  LIG1       -0.0275
      3 C          -2.5039   -0.8004    0.0001 C.ar    1  LIG1       -0.0542
      4 C          -3.2580    0.3743   -0.0001 C.ar    1  LIG1       -0.0243
      5 C          -4.6612    0.2715   -0.0003 C.ar    1  LIG1        0.0779
      6 N          -5.3207   -0.9034   -0.0001 N.ar    1  LIG1       -0.2381
      7 H          -1.4054   -0.7607   -0.0009 H       1  LIG1        0.0622
      8 H          -2.5135   -3.1487    0.0004 H       1  LIG1        0.0645
      9 C          -5.2431   -3.1437    0.0002 C.1     1  LIG1       -0.0498
     10 C          -5.8581   -4.1755    0.0003 C.1     1  LIG1       -0.1124
     11 H          -6.4059   -5.0946    0.0004 H       1  LIG1        0.1232
     12 C          -2.6845    1.5413   -0.0003 C.3     1  LIG1       -0.0377
     13 H          -3.3112    2.2468    0.5041 H       1  LIG1        0.0278
     14 H          -2.5273    1.8613   -1.0092 H       1  LIG1        0.0278
     15 H          -1.7430    1.4761    0.5040 H       1  LIG1        0.0278
     16 C          -6.8088    1.2233   -0.0003 C.ar    1  LIG1        0.1230
     17 C          -5.4065    1.3366   -0.0004 C.ar    1  LIG1        0.0347
     18 C          -4.8408    2.6129   -0.0003 C.ar    1  LIG1       -0.0449
     19 C          -5.6871    3.7231   -0.0003 C.ar    1  LIG1       -0.0237
     20 C          -7.0774    3.5076   -0.0004 C.ar    1  LIG1        0.0780
     21 N          -7.6401    2.2834   -0.0003 N.ar    1  LIG1       -0.2374
     22 H          -3.7491    2.7410   -0.0014 H       1  LIG1        0.0628
     23 C          -7.3823    0.0566   -0.0003 C.1     1  LIG1       -0.0491
     24 C          -7.9122   -1.0214   -0.0003 C.1     1  LIG1       -0.1124
     25 H          -8.3842   -1.9816   -0.0003 H       1  LIG1        0.1232
     26 C          -5.2094    4.9325   -0.0004 C.3     1  LIG1       -0.0377
     27 H          -5.8909    5.5852    0.5040 H       1  LIG1        0.0278
     28 H          -5.0784    5.2642   -1.0092 H       1  LIG1        0.0278
     29 H          -4.2658    4.9433    0.5040 H       1  LIG1        0.0278
     30 C          -9.2948    4.2833   -0.0001 C.ar    1  LIG1        0.1223
     31 C          -7.9061    4.5092   -0.0003 C.ar    1  LIG1        0.0347
     32 C          -7.4450    5.8270   -0.0001 C.ar    1  LIG1       -0.0455
     33 C          -8.3780    6.8653    0.0002 C.ar    1  LIG1       -0.0316
     34 C          -9.7465    6.5385    0.0002 C.ar    1  LIG1        0.0319
     35 N         -10.2087    5.2730    0.0002 N.ar    1  LIG1       -0.2458
     36 H          -6.3672    6.0425   -0.0012 H       1  LIG1        0.0628
     37 H         -10.6531    7.4701    0.0005 H       1  LIG1        0.0832
     38 C          -9.7724    3.0742   -0.0002 C.1     1  LIG1       -0.0491
     39 C         -10.2137    1.9570   -0.0002 C.1     1  LIG1       -0.1124
     40 H         -10.6069    0.9619   -0.0003 H       1  LIG1        0.1232
     41 C          -7.9993    8.1093    0.0002 C.3     1  LIG1       -0.0383
     42 H          -8.7311    8.7049    0.5046 H       1  LIG1        0.0278
     43 H          -7.8954    8.4505   -1.0087 H       1  LIG1        0.0278
     44 H          -7.0596    8.1960    0.5046 H       1  LIG1        0.0278
@<TRIPOS>BOND
     1    28    26    1
     2    14    12    1
     3    43    41    1
     4    22    18    1
     5    36    32    1
     6     7     3    1
     7    17     5    1
     8    17    16   ar
     9    17    18   ar
    10    20    21   ar
    11    20    31    1
    12    20    19   ar
    13    26    19    1
    14    26    29    1
    15    26    27    1
    16    40    39    1
    17    12     4    1
    18    12    15    1
    19    12    13    1
    20     5     4   ar
    21     5     6   ar
    22    16    23    1
    23    16    21   ar
    24    18    19   ar
    25    23    24    3
    26    24    25    1
    27    31    30   ar
    28    31    32   ar
    29    39    38    3
    30    38    30    1
    31     4     3   ar
    32     6     1   ar
    33    30    35   ar
    34    32    33   ar
    35     1     2   ar
    36     1     9    1
    37     2     3   ar
    38     2     8    1
    39    35    34   ar
    40    34    33   ar
    41    34    37    1
    42    33    41    1
    43    41    44    1
    44    41    42    1
    45     9    10    3
    46    10    11    1
