@<TRIPOS>MOLECULE
mol_data/noopt/geoms/mol2/6ei6ei-4ei6ei.out
 59 62 0 0 0
SMALL
GASTEIGER

@<TRIPOS>ATOM
      1 C          -4.5775   -2.0270    0.0001 C.ar    1  LIG1        0.1138
      2 C          -3.1706   -2.0270    0.0001 C.ar    1  LIG1       -0.0275
      3 C          -2.5039   -0.8004    0.0001 C.ar    1  LIG1       -0.0539
      4 C          -3.2580    0.3743   -0.0001 C.ar    1  LIG1       -0.0209
      5 C          -4.6612    0.2715   -0.0003 C.ar    1  LIG1        0.0773
      6 N          -5.3207   -0.9034   -0.0001 N.ar    1  LIG1       -0.2381
      7 H          -1.4054   -0.7607   -0.0009 H       1  LIG1        0.0622
      8 H          -2.5135   -3.1487    0.0004 H       1  LIG1        0.0645
      9 C          -5.2431   -3.1437    0.0002 C.1     1  LIG1       -0.0498
     10 C          -5.8581   -4.1755    0.0003 C.1     1  LIG1       -0.1124
     11 H          -6.4059   -5.0946    0.0004 H       1  LIG1        0.1232
     12 C          -2.6845    1.5413   -0.0003 C.3     1  LIG1       -0.0216
     13 H          -3.3112    2.2468    0.5041 H       1  LIG1        0.0373
     14 H          -2.5273    1.8613   -1.0092 H       1  LIG1        0.0317
     15 H          -1.7430    1.4761    0.5040 H       1  LIG1        0.0317
     16 C          -4.8196    2.6153   -0.0003 C.ar    1  LIG1        0.0551
     17 C          -5.4065    1.3366   -0.0004 C.ar    1  LIG1        0.0225
     18 C          -6.7994    1.2424   -0.0003 C.ar    1  LIG1       -0.0459
     19 C          -7.5524    2.4178   -0.0003 C.ar    1  LIG1       -0.0238
     20 C          -6.8736    3.6502   -0.0004 C.ar    1  LIG1        0.0754
     21 N          -5.5307    3.7594   -0.0003 N.ar    1  LIG1       -0.2503
     22 H          -7.2937    0.2606   -0.0014 H       1  LIG1        0.0628
     23 C          -3.5271    2.7543   -0.0003 C.3     1  LIG1        0.0139
     24 C          -2.3328    2.8828   -0.0002 C.3     1  LIG1       -0.0247
     25 H          -1.2689    2.9973   -0.0002 H       1  LIG1        0.0313
     26 C          -8.8523    2.3834   -0.0004 C.3     1  LIG1       -0.0377
     27 H          -9.1858    1.5006    0.5040 H       1  LIG1        0.0278
     28 H          -9.2088    2.3739   -1.0093 H       1  LIG1        0.0278
     29 H          -9.2320    3.2473    0.5039 H       1  LIG1        0.0278
     30 C          -6.8310    5.9958    0.0005 C.ar    1  LIG1        0.0344
     31 C          -7.5886    7.1830    0.0022 C.ar    1  LIG1       -0.0377
     32 C          -7.5307    4.7718   -0.0003 C.ar    1  LIG1        0.0163
     33 C          -8.9814    7.1551    0.0023 C.ar    1  LIG1       -0.0118
     34 H          -7.0688    8.1385    0.0030 H       1  LIG1        0.0636
     35 C          -8.9211    4.7434   -0.0001 C.ar    1  LIG1       -0.0476
     36 C          -9.6560    5.9336    0.0011 C.ar    1  LIG1       -0.0386
     37 H          -9.4376    3.7869   -0.0006 H       1  LIG1        0.0627
     38 C          -5.5341    6.0859    0.0002 C.1     1  LIG1       -0.0690
     39 C          -4.3358    6.1691   -0.0002 C.1     1  LIG1       -0.1139
     40 H          -3.2684    6.2432   -0.0005 H       1  LIG1        0.1232
     41 C         -10.9559    5.9008    0.0014 C.3     1  LIG1       -0.0231
     42 H         -11.2903    5.0184    0.5060 H       1  LIG1        0.0316
     43 H         -11.3127    5.8917   -1.0073 H       1  LIG1        0.0316
     44 H         -11.3343    6.7652    0.5059 H       1  LIG1        0.0373
     45 C         -11.0562    8.2567    0.0047 C.ar    1  LIG1        0.0530
     46 C          -9.6493    8.2703    0.0037 C.ar    1  LIG1        0.0043
     47 C          -8.9946    9.5034    0.0047 C.ar    1  LIG1       -0.0479
     48 C          -9.7600   10.6707    0.0063 C.ar    1  LIG1       -0.0318
     49 C         -11.1621   10.5543    0.0069 C.ar    1  LIG1        0.0308
     50 N         -11.8102    9.3730    0.0062 N.ar    1  LIG1       -0.2587
     51 H          -7.8965    9.5537    0.0030 H       1  LIG1        0.0627
     52 H         -11.9177   11.6121    0.0085 H       1  LIG1        0.0832
     53 C         -11.7109    7.1336    0.0040 C.3     1  LIG1        0.0138
     54 C         -12.3159    6.0959    0.0033 C.3     1  LIG1       -0.0247
     55 H         -12.8547    5.1715    0.0027 H       1  LIG1        0.0313
     56 C          -9.1978   11.8432    0.0071 C.3     1  LIG1       -0.0383
     57 H          -9.8315   12.5423    0.5117 H       1  LIG1        0.0278
     58 H          -9.0434   12.1654   -1.0016 H       1  LIG1        0.0278
     59 H          -8.2559   11.7868    0.5116 H       1  LIG1        0.0278
@<TRIPOS>BOND
     1    28    26    1
     2    14    12    1
     3    43    41    1
     4    58    56    1
     5    22    18    1
     6     7     3    1
     7    37    35    1
     8    40    39    1
     9    17    18   ar
    10    17     5    1
    11    17    16   ar
    12    26    19    1
    13    26    29    1
    14    26    27    1
    15    20    19   ar
    16    20    32    1
    17    20    21   ar
    18    18    19   ar
    19    12     4    1
    20    12    15    1
    21     5     6   ar
    22     5     4   ar
    23    32    35   ar
    24    32    30   ar
    25    16    21   ar
    26    16    23    1
    27    23    24    1
    28    23    13    1
    29    24    25    1
    30    39    38    3
    31     6     1   ar
    32     4     3   ar
    33    35    36   ar
    34     1     2   ar
    35     1     9    1
    36     3     2   ar
    37     2     8    1
    38    38    30    1
    39     9    10    3
    40    10    11    1
    41    30    31   ar
    42    36    41    1
    43    36    33   ar
    44    41    42    1
    45    31    33   ar
    46    31    34    1
    47    33    46    1
    48    55    54    1
    49    51    47    1
    50    54    53    1
    51    46    45   ar
    52    46    47   ar
    53    53    45    1
    54    53    44    1
    55    45    50   ar
    56    47    48   ar
    57    50    49   ar
    58    48    49   ar
    59    48    56    1
    60    49    52    1
    61    56    59    1
    62    56    57    1
