@<TRIPOS>MOLECULE
mol_data/noopt/geoms/mol2/6ei6ei.out
 30 31 0 0 0
SMALL
GASTEIGER

@<TRIPOS>ATOM
      1 C          -4.5775   -2.0270    0.0001 C.ar    1  LIG1        0.1138
      2 C          -3.1706   -2.0270    0.0001 C.ar    1  LIG1       -0.0275
      3 C          -2.5039   -0.8004    0.0001 C.ar    1  LIG1       -0.0542
      4 C          -3.2580    0.3743   -0.0001 C.ar    1  LIG1       -0.0243
      5 C          -4.6612    0.2715   -0.0003 C.ar    1  LIG1        0.0779
      6 N          -5.3207   -0.9034   -0.0001 N.ar    1  LIG1       -0.2381
      7 H          -1.4054   -0.7607   -0.0009 H       1  LIG1        0.0622
      8 H          -2.5135   -3.1487    0.0004 H       1  LIG1        0.0645
      9 C          -5.2431   -3.1437    0.0002 C.1     1  LIG1       -0.0498
     10 C          -5.8581   -4.1755    0.0003 C.1     1  LIG1       -0.1124
     11 H          -6.4059   -5.0946    0.0004 H       1  LIG1        0.1232
     12 C          -2.6845    1.5413   -0.0003 C.3     1  LIG1       -0.0377
     13 H          -3.3112    2.2468    0.5041 H       1  LIG1        0.0278
     14 H          -2.5273    1.8613   -1.0092 H       1  LIG1        0.0278
     15 H          -1.7430    1.4761    0.5040 H       1  LIG1        0.0278
     16 C          -6.8088    1.2233   -0.0003 C.ar    1  LIG1        0.1223
     17 C          -5.4065    1.3366   -0.0004 C.ar    1  LIG1        0.0347
     18 C          -4.8408    2.6129   -0.0003 C.ar    1  LIG1       -0.0455
     19 C          -5.6871    3.7231   -0.0003 C.ar    1  LIG1       -0.0316
     20 C          -7.0774    3.5076   -0.0004 C.ar    1  LIG1        0.0319
     21 N          -7.6401    2.2834   -0.0003 N.ar    1  LIG1       -0.2458
     22 H          -3.7491    2.7410   -0.0014 H       1  LIG1        0.0628
     23 H          -7.9061    4.5092   -0.0003 H       1  LIG1        0.0832
     24 C          -7.3823    0.0566   -0.0003 C.1     1  LIG1       -0.0491
     25 C          -7.9122   -1.0214   -0.0003 C.1     1  LIG1       -0.1124
     26 H          -8.3842   -1.9816   -0.0003 H       1  LIG1        0.1232
     27 C          -5.2094    4.9325   -0.0004 C.3     1  LIG1       -0.0383
     28 H          -5.8909    5.5852    0.5040 H       1  LIG1        0.0278
     29 H          -5.0784    5.2642   -1.0092 H       1  LIG1        0.0278
     30 H          -4.2658    4.9433    0.5040 H       1  LIG1        0.0278
@<TRIPOS>BOND
     1    29    27    1
     2    14    12    1
     3    22    18    1
     4     7     3    1
     5    17     5    1
     6    17    16   ar
     7    17    18   ar
     8    20    21   ar
     9    20    23    1
    10    20    19   ar
    11    27    19    1
    12    27    30    1
    13    27    28    1
    14     5     6   ar
    15     5     4   ar
    16    12     4    1
    17    12    15    1
    18    12    13    1
    19    16    24    1
    20    16    21   ar
    21    18    19   ar
    22    24    25    3
    23    25    26    1
    24     6     1   ar
    25     4     3   ar
    26     1     2   ar
    27     1     9    1
    28     3     2   ar
    29     2     8    1
    30     9    10    3
    31    10    11    1
