@<TRIPOS>MOLECULE
mol_data/noopt/geoms/mol2/6ei6ei-6ei6ei-.out
 58 61 0 0 0
SMALL
GASTEIGER

@<TRIPOS>ATOM
      1 C          -4.5775   -2.0270    0.0001 C.ar    1  LIG1        0.1138
      2 C          -3.1706   -2.0270    0.0001 C.ar    1  LIG1       -0.0275
      3 C          -2.5039   -0.8004    0.0001 C.ar    1  LIG1       -0.0539
      4 C          -3.2580    0.3743   -0.0001 C.ar    1  LIG1       -0.0209
      5 C          -4.6612    0.2715   -0.0003 C.ar    1  LIG1        0.0773
      6 N          -5.3207   -0.9034   -0.0001 N.ar    1  LIG1       -0.2381
      7 H          -1.4054   -0.7607   -0.0009 H       1  LIG1        0.0622
      8 H          -2.5135   -3.1487    0.0004 H       1  LIG1        0.0645
      9 C          -5.2431   -3.1437    0.0002 C.1     1  LIG1       -0.0498
     10 C          -5.8581   -4.1755    0.0003 C.1     1  LIG1       -0.1124
     11 H          -6.4059   -5.0946    0.0004 H       1  LIG1        0.1232
     12 C          -2.6845    1.5413   -0.0003 C.3     1  LIG1       -0.0216
     13 H          -3.3112    2.2468    0.5041 H       1  LIG1        0.0373
     14 H          -2.5273    1.8613   -1.0092 H       1  LIG1        0.0317
     15 H          -1.7430    1.4761    0.5040 H       1  LIG1        0.0317
     16 C          -4.8196    2.6153   -0.0003 C.ar    1  LIG1        0.0551
     17 C          -5.4065    1.3366   -0.0004 C.ar    1  LIG1        0.0225
     18 C          -6.7994    1.2424   -0.0003 C.ar    1  LIG1       -0.0456
     19 C          -7.5524    2.4178   -0.0003 C.ar    1  LIG1       -0.0204
     20 C          -6.8736    3.6502   -0.0004 C.ar    1  LIG1        0.0762
     21 N          -5.5307    3.7594   -0.0003 N.ar    1  LIG1       -0.2503
     22 H          -7.2937    0.2606   -0.0014 H       1  LIG1        0.0628
     23 C          -3.5271    2.7543   -0.0003 C.3     1  LIG1        0.0139
     24 C          -2.3328    2.8828   -0.0002 C.3     1  LIG1       -0.0247
     25 H          -1.2689    2.9973   -0.0002 H       1  LIG1        0.0313
     26 C          -8.8523    2.3834   -0.0004 C.3     1  LIG1       -0.0216
     27 H          -9.1858    1.5006    0.5040 H       1  LIG1        0.0317
     28 H          -9.2088    2.3739   -1.0093 H       1  LIG1        0.0317
     29 H          -9.2320    3.2473    0.5039 H       1  LIG1        0.0373
     30 C          -8.9376    4.7719   -0.0001 C.ar    1  LIG1        0.0551
     31 C          -7.5307    4.7719   -0.0003 C.ar    1  LIG1        0.0225
     32 C          -6.8640    5.9985   -0.0001 C.ar    1  LIG1       -0.0456
     33 C          -7.6181    7.1732    0.0002 C.ar    1  LIG1       -0.0204
     34 C          -9.0213    7.0704    0.0002 C.ar    1  LIG1        0.0762
     35 N          -9.6808    5.8955    0.0002 N.ar    1  LIG1       -0.2503
     36 H          -5.7655    6.0382   -0.0012 H       1  LIG1        0.0628
     37 C          -9.6032    3.6552   -0.0002 C.3     1  LIG1        0.0139
     38 C         -10.2182    2.6234   -0.0002 C.3     1  LIG1       -0.0247
     39 H         -10.7661    1.7043   -0.0003 H       1  LIG1        0.0313
     40 C          -7.0446    8.3402    0.0002 C.3     1  LIG1       -0.0216
     41 H          -7.6713    9.0456    0.5046 H       1  LIG1        0.0373
     42 H          -6.8873    8.6603   -1.0086 H       1  LIG1        0.0317
     43 H          -6.1032    8.2749    0.5046 H       1  LIG1        0.0317
     44 C          -9.1798    9.4141    0.0008 C.ar    1  LIG1        0.0544
     45 C          -9.7667    8.1355    0.0005 C.ar    1  LIG1        0.0224
     46 C         -11.1596    8.0413    0.0008 C.ar    1  LIG1       -0.0465
     47 C         -11.9126    9.2167    0.0012 C.ar    1  LIG1       -0.0317
     48 C         -11.2338   10.4491    0.0013 C.ar    1  LIG1        0.0308
     49 N          -9.8909   10.5583    0.0012 N.ar    1  LIG1       -0.2587
     50 H         -11.6539    7.0595   -0.0005 H       1  LIG1        0.0628
     51 H         -11.8909   11.5707    0.0018 H       1  LIG1        0.0832
     52 C          -7.8872    9.5532    0.0006 C.3     1  LIG1        0.0139
     53 C          -6.6929    9.6817    0.0005 C.3     1  LIG1       -0.0247
     54 H          -5.6290    9.7962    0.0003 H       1  LIG1        0.0313
     55 C         -13.2124    9.1822    0.0013 C.3     1  LIG1       -0.0383
     56 H         -13.5458    8.2995    0.5058 H       1  LIG1        0.0278
     57 H         -13.5691    9.1727   -1.0075 H       1  LIG1        0.0278
     58 H         -13.5920   10.0462    0.5057 H       1  LIG1        0.0278
@<TRIPOS>BOND
     1    28    26    1
     2    14    12    1
     3    42    40    1
     4    57    55    1
     5    22    18    1
     6    36    32    1
     7     7     3    1
     8    50    46    1
     9    17    18   ar
    10    17     5    1
    11    17    16   ar
    12    26    19    1
    13    26    27    1
    14    20    19   ar
    15    20    31    1
    16    20    21   ar
    17    39    38    1
    18    18    19   ar
    19    12     4    1
    20    12    15    1
    21     5     6   ar
    22     5     4   ar
    23    31    30   ar
    24    31    32   ar
    25    16    21   ar
    26    16    23    1
    27    23    24    1
    28    23    13    1
    29    24    25    1
    30    38    37    1
    31    37    30    1
    32    37    29    1
    33     6     1   ar
    34     4     3   ar
    35    30    35   ar
    36    32    33   ar
    37     1     2   ar
    38     1     9    1
    39     2     3   ar
    40     2     8    1
    41    35    34   ar
    42    34    33   ar
    43    34    45    1
    44    33    40    1
    45    40    43    1
    46     9    10    3
    47    10    11    1
    48    54    53    1
    49    45    46   ar
    50    45    44   ar
    51    53    52    1
    52    52    44    1
    53    52    41    1
    54    46    47   ar
    55    44    49   ar
    56    47    48   ar
    57    47    55    1
    58    49    48   ar
    59    48    51    1
    60    55    58    1
    61    55    56    1
