@<TRIPOS>MOLECULE
mol_data/noopt/geoms/mol2/6ei6ei-6ei-6ei.out
 58 61 0 0 0
SMALL
GASTEIGER

@<TRIPOS>ATOM
      1 C          -4.5775   -2.0270    0.0001 C.ar    1  LIG1        0.1138
      2 C          -3.1706   -2.0270    0.0001 C.ar    1  LIG1       -0.0275
      3 C          -2.5039   -0.8004    0.0001 C.ar    1  LIG1       -0.0539
      4 C          -3.2580    0.3743   -0.0001 C.ar    1  LIG1       -0.0209
      5 C          -4.6612    0.2715   -0.0003 C.ar    1  LIG1        0.0773
      6 N          -5.3207   -0.9034   -0.0001 N.ar    1  LIG1       -0.2381
      7 H          -1.4054   -0.7607   -0.0009 H       1  LIG1        0.0622
      8 H          -2.5135   -3.1487    0.0004 H       1  LIG1        0.0645
      9 C          -5.2431   -3.1437    0.0002 C.1     1  LIG1       -0.0498
     10 C          -5.8581   -4.1755    0.0003 C.1     1  LIG1       -0.1124
     11 H          -6.4059   -5.0946    0.0004 H       1  LIG1        0.1232
     12 C          -2.6845    1.5413   -0.0003 C.3     1  LIG1       -0.0216
     13 H          -3.3112    2.2468    0.5041 H       1  LIG1        0.0373
     14 H          -2.5273    1.8613   -1.0092 H       1  LIG1        0.0317
     15 H          -1.7430    1.4761    0.5040 H       1  LIG1        0.0317
     16 C          -4.8196    2.6153   -0.0003 C.ar    1  LIG1        0.0551
     17 C          -5.4065    1.3366   -0.0004 C.ar    1  LIG1        0.0225
     18 C          -6.7994    1.2424   -0.0003 C.ar    1  LIG1       -0.0459
     19 C          -7.5524    2.4178   -0.0003 C.ar    1  LIG1       -0.0237
     20 C          -6.8736    3.6502   -0.0004 C.ar    1  LIG1        0.0769
     21 N          -5.5307    3.7594   -0.0003 N.ar    1  LIG1       -0.2503
     22 H          -7.2937    0.2606   -0.0014 H       1  LIG1        0.0628
     23 C          -3.5271    2.7543   -0.0003 C.3     1  LIG1        0.0139
     24 C          -2.3328    2.8828   -0.0002 C.3     1  LIG1       -0.0247
     25 H          -1.2689    2.9973   -0.0002 H       1  LIG1        0.0313
     26 C          -8.8523    2.3834   -0.0004 C.3     1  LIG1       -0.0377
     27 H          -9.1858    1.5006    0.5040 H       1  LIG1        0.0278
     28 H          -9.2088    2.3739   -1.0093 H       1  LIG1        0.0278
     29 H          -9.2320    3.2473    0.5039 H       1  LIG1        0.0278
     30 C          -6.8427    5.9991   -0.0000 C.ar    1  LIG1        0.1230
     31 C          -7.5307    4.7719   -0.0003 C.ar    1  LIG1        0.0347
     32 C          -8.9267    4.7902   -0.0001 C.ar    1  LIG1       -0.0447
     33 C          -9.5826    6.0224    0.0002 C.ar    1  LIG1       -0.0203
     34 C          -8.8067    7.1961    0.0002 C.ar    1  LIG1        0.0773
     35 N          -7.4594    7.1968    0.0002 N.ar    1  LIG1       -0.2374
     36 H          -9.4985    3.8514   -0.0012 H       1  LIG1        0.0628
     37 C          -5.5432    6.0336   -0.0001 C.1     1  LIG1       -0.0491
     38 C          -4.3424    6.0655   -0.0002 C.1     1  LIG1       -0.1124
     39 H          -3.2728    6.0939   -0.0003 H       1  LIG1        0.1232
     40 C         -10.8810    6.0928    0.0002 C.3     1  LIG1       -0.0216
     41 H         -11.2845    5.2397    0.5046 H       1  LIG1        0.0317
     42 H         -11.2372    6.1120   -1.0087 H       1  LIG1        0.0317
     43 H         -11.1898    6.9845    0.5045 H       1  LIG1        0.0373
     44 C         -10.7737    8.4804    0.0008 C.ar    1  LIG1        0.0544
     45 C          -9.3714    8.3671    0.0005 C.ar    1  LIG1        0.0225
     46 C          -8.6080    9.5360    0.0008 C.ar    1  LIG1       -0.0465
     47 C          -9.2650   10.7676    0.0012 C.ar    1  LIG1       -0.0317
     48 C         -10.6720   10.7782    0.0013 C.ar    1  LIG1        0.0308
     49 N         -11.4240    9.6602    0.0012 N.ar    1  LIG1       -0.2587
     50 H          -7.5099    9.4871   -0.0004 H       1  LIG1        0.0628
     51 H         -11.3291   11.8999    0.0018 H       1  LIG1        0.0832
     52 C         -11.5271    7.4210    0.0006 C.3     1  LIG1        0.0139
     53 C         -12.2232    6.4420    0.0004 C.3     1  LIG1       -0.0247
     54 H         -12.8433    5.5700    0.0003 H       1  LIG1        0.0313
     55 C          -8.5994   11.8846    0.0014 C.3     1  LIG1       -0.0383
     56 H          -9.1673   12.6382    0.5058 H       1  LIG1        0.0278
     57 H          -8.4168   12.1911   -1.0074 H       1  LIG1        0.0278
     58 H          -7.6663   11.7437    0.5058 H       1  LIG1        0.0278
@<TRIPOS>BOND
     1    28    26    1
     2    14    12    1
     3    42    40    1
     4    57    55    1
     5    22    18    1
     6    36    32    1
     7     7     3    1
     8    50    46    1
     9    17    18   ar
    10    17     5    1
    11    17    16   ar
    12    26    19    1
    13    26    29    1
    14    26    27    1
    15    20    19   ar
    16    20    31    1
    17    20    21   ar
    18    18    19   ar
    19     5     6   ar
    20     5     4   ar
    21    12     4    1
    22    12    15    1
    23    31    32   ar
    24    31    30   ar
    25    16    21   ar
    26    16    23    1
    27    39    38    1
    28    23    24    1
    29    23    13    1
    30    24    25    1
    31    38    37    3
    32    37    30    1
    33     6     1   ar
    34     4     3   ar
    35    32    33   ar
    36    30    35   ar
    37     1     2   ar
    38     1     9    1
    39     2     3   ar
    40     2     8    1
    41    33    40    1
    42    33    34   ar
    43    40    41    1
    44    34    35   ar
    45    34    45    1
    46     9    10    3
    47    54    53    1
    48    10    11    1
    49    53    52    1
    50    45    44   ar
    51    45    46   ar
    52    52    44    1
    53    52    43    1
    54    44    49   ar
    55    46    47   ar
    56    49    48   ar
    57    47    48   ar
    58    47    55    1
    59    48    51    1
    60    55    58    1
    61    55    56    1
