@<TRIPOS>MOLECULE
mol_data/noopt/geoms/mol2/6ei6ei-6ei.out
 44 46 0 0 0
SMALL
GASTEIGER

@<TRIPOS>ATOM
      1 C          -4.5775   -2.0270    0.0001 C.ar    1  LIG1        0.1138
      2 C          -3.1706   -2.0270    0.0001 C.ar    1  LIG1       -0.0275
      3 C          -2.5039   -0.8004    0.0001 C.ar    1  LIG1       -0.0539
      4 C          -3.2580    0.3743   -0.0001 C.ar    1  LIG1       -0.0209
      5 C          -4.6612    0.2715   -0.0003 C.ar    1  LIG1        0.0773
      6 N          -5.3207   -0.9034   -0.0001 N.ar    1  LIG1       -0.2381
      7 H          -1.4054   -0.7607   -0.0009 H       1  LIG1        0.0622
      8 H          -2.5135   -3.1487    0.0004 H       1  LIG1        0.0645
      9 C          -5.2431   -3.1437    0.0002 C.1     1  LIG1       -0.0498
     10 C          -5.8581   -4.1755    0.0003 C.1     1  LIG1       -0.1124
     11 H          -6.4059   -5.0946    0.0004 H       1  LIG1        0.1232
     12 C          -2.6845    1.5413   -0.0003 C.3     1  LIG1       -0.0216
     13 H          -3.3112    2.2468    0.5041 H       1  LIG1        0.0373
     14 H          -2.5273    1.8613   -1.0092 H       1  LIG1        0.0317
     15 H          -1.7430    1.4761    0.5040 H       1  LIG1        0.0317
     16 C          -4.8196    2.6153   -0.0003 C.ar    1  LIG1        0.0551
     17 C          -5.4065    1.3366   -0.0004 C.ar    1  LIG1        0.0225
     18 C          -6.7994    1.2424   -0.0003 C.ar    1  LIG1       -0.0456
     19 C          -7.5524    2.4178   -0.0003 C.ar    1  LIG1       -0.0204
     20 C          -6.8736    3.6502   -0.0004 C.ar    1  LIG1        0.0762
     21 N          -5.5307    3.7594   -0.0003 N.ar    1  LIG1       -0.2503
     22 H          -7.2937    0.2606   -0.0014 H       1  LIG1        0.0628
     23 C          -3.5271    2.7543   -0.0003 C.3     1  LIG1        0.0139
     24 C          -2.3328    2.8828   -0.0002 C.3     1  LIG1       -0.0247
     25 H          -1.2689    2.9973   -0.0002 H       1  LIG1        0.0313
     26 C          -8.8523    2.3834   -0.0004 C.3     1  LIG1       -0.0216
     27 H          -9.1858    1.5006    0.5040 H       1  LIG1        0.0317
     28 H          -9.2088    2.3739   -1.0093 H       1  LIG1        0.0317
     29 H          -9.2320    3.2473    0.5039 H       1  LIG1        0.0373
     30 C          -8.9376    4.7719   -0.0001 C.ar    1  LIG1        0.0544
     31 C          -7.5307    4.7719   -0.0003 C.ar    1  LIG1        0.0224
     32 C          -6.8640    5.9985   -0.0001 C.ar    1  LIG1       -0.0465
     33 C          -7.6181    7.1732    0.0002 C.ar    1  LIG1       -0.0317
     34 C          -9.0213    7.0704    0.0002 C.ar    1  LIG1        0.0308
     35 N          -9.6808    5.8955    0.0002 N.ar    1  LIG1       -0.2587
     36 H          -5.7655    6.0382   -0.0012 H       1  LIG1        0.0628
     37 H          -9.7666    8.1355    0.0005 H       1  LIG1        0.0832
     38 C          -9.6032    3.6552   -0.0002 C.3     1  LIG1        0.0139
     39 C         -10.2182    2.6234   -0.0002 C.3     1  LIG1       -0.0247
     40 H         -10.7661    1.7043   -0.0003 H       1  LIG1        0.0313
     41 C          -7.0446    8.3402    0.0002 C.3     1  LIG1       -0.0383
     42 H          -7.6713    9.0456    0.5046 H       1  LIG1        0.0278
     43 H          -6.8873    8.6603   -1.0086 H       1  LIG1        0.0278
     44 H          -6.1032    8.2749    0.5046 H       1  LIG1        0.0278
@<TRIPOS>BOND
     1    28    26    1
     2    14    12    1
     3    43    41    1
     4    22    18    1
     5    36    32    1
     6     7     3    1
     7    17    18   ar
     8    17     5    1
     9    17    16   ar
    10    26    19    1
    11    26    27    1
    12    20    19   ar
    13    20    31    1
    14    20    21   ar
    15    40    39    1
    16    18    19   ar
    17    12     4    1
    18    12    15    1
    19     5     4   ar
    20     5     6   ar
    21    31    30   ar
    22    31    32   ar
    23    16    21   ar
    24    16    23    1
    25    23    24    1
    26    23    13    1
    27    24    25    1
    28    39    38    1
    29    38    30    1
    30    38    29    1
    31     4     3   ar
    32     6     1   ar
    33    30    35   ar
    34    32    33   ar
    35     1     2   ar
    36     1     9    1
    37     2     3   ar
    38     2     8    1
    39    35    34   ar
    40    34    33   ar
    41    34    37    1
    42    33    41    1
    43    41    44    1
    44    41    42    1
    45     9    10    3
    46    10    11    1
