@<TRIPOS>MOLECULE
mol_data/noopt/geoms/mol2/6ei6ei-.out
 30 31 0 0 0
SMALL
GASTEIGER

@<TRIPOS>ATOM
      1 C          -4.5775   -2.0270    0.0001 C.ar    1  LIG1        0.1138
      2 C          -3.1706   -2.0270    0.0001 C.ar    1  LIG1       -0.0275
      3 C          -2.5039   -0.8004    0.0001 C.ar    1  LIG1       -0.0539
      4 C          -3.2580    0.3743   -0.0001 C.ar    1  LIG1       -0.0209
      5 C          -4.6612    0.2715   -0.0003 C.ar    1  LIG1        0.0773
      6 N          -5.3207   -0.9034   -0.0001 N.ar    1  LIG1       -0.2381
      7 H          -1.4054   -0.7607   -0.0009 H       1  LIG1        0.0622
      8 H          -2.5135   -3.1487    0.0004 H       1  LIG1        0.0645
      9 C          -5.2431   -3.1437    0.0002 C.1     1  LIG1       -0.0498
     10 C          -5.8581   -4.1755    0.0003 C.1     1  LIG1       -0.1124
     11 H          -6.4059   -5.0946    0.0004 H       1  LIG1        0.1232
     12 C          -2.6845    1.5413   -0.0003 C.3     1  LIG1       -0.0216
     13 H          -3.3112    2.2468    0.5041 H       1  LIG1        0.0373
     14 H          -2.5273    1.8613   -1.0092 H       1  LIG1        0.0317
     15 H          -1.7430    1.4761    0.5040 H       1  LIG1        0.0317
     16 C          -4.8196    2.6153   -0.0003 C.ar    1  LIG1        0.0544
     17 C          -5.4065    1.3366   -0.0004 C.ar    1  LIG1        0.0225
     18 C          -6.7994    1.2424   -0.0003 C.ar    1  LIG1       -0.0465
     19 C          -7.5524    2.4178   -0.0003 C.ar    1  LIG1       -0.0317
     20 C          -6.8736    3.6502   -0.0004 C.ar    1  LIG1        0.0308
     21 N          -5.5307    3.7594   -0.0003 N.ar    1  LIG1       -0.2587
     22 H          -7.2937    0.2606   -0.0014 H       1  LIG1        0.0628
     23 H          -7.5307    4.7719   -0.0003 H       1  LIG1        0.0832
     24 C          -3.5271    2.7543   -0.0003 C.3     1  LIG1        0.0139
     25 C          -2.3328    2.8828   -0.0002 C.3     1  LIG1       -0.0247
     26 H          -1.2689    2.9973   -0.0002 H       1  LIG1        0.0313
     27 C          -8.8523    2.3834   -0.0004 C.3     1  LIG1       -0.0383
     28 H          -9.1858    1.5006    0.5040 H       1  LIG1        0.0278
     29 H          -9.2088    2.3739   -1.0093 H       1  LIG1        0.0278
     30 H          -9.2320    3.2473    0.5039 H       1  LIG1        0.0278
@<TRIPOS>BOND
     1    29    27    1
     2    14    12    1
     3    22    18    1
     4     7     3    1
     5    17    18   ar
     6    17     5    1
     7    17    16   ar
     8    27    19    1
     9    27    30    1
    10    27    28    1
    11    20    19   ar
    12    20    23    1
    13    20    21   ar
    14    18    19   ar
    15     5     6   ar
    16     5     4   ar
    17    12     4    1
    18    12    15    1
    19    16    21   ar
    20    16    24    1
    21    24    25    1
    22    24    13    1
    23    25    26    1
    24     6     1   ar
    25     4     3   ar
    26     1     2   ar
    27     1     9    1
    28     3     2   ar
    29     2     8    1
    30     9    10    3
    31    10    11    1
