@<TRIPOS>MOLECULE
mol_data/noopt/geoms/mol2/6ei6ei6ei-6ei.out
 58 61 0 0 0
SMALL
GASTEIGER

@<TRIPOS>ATOM
      1 C          -4.5775   -2.0270    0.0001 C.ar    1  LIG1        0.1138
      2 C          -3.1706   -2.0270    0.0001 C.ar    1  LIG1       -0.0275
      3 C          -2.5039   -0.8004    0.0001 C.ar    1  LIG1       -0.0542
      4 C          -3.2580    0.3743   -0.0001 C.ar    1  LIG1       -0.0243
      5 C          -4.6612    0.2715   -0.0003 C.ar    1  LIG1        0.0779
      6 N          -5.3207   -0.9034   -0.0001 N.ar    1  LIG1       -0.2381
      7 H          -1.4054   -0.7607   -0.0009 H       1  LIG1        0.0622
      8 H          -2.5135   -3.1487    0.0004 H       1  LIG1        0.0645
      9 C          -5.2431   -3.1437    0.0002 C.1     1  LIG1       -0.0498
     10 C          -5.8581   -4.1755    0.0003 C.1     1  LIG1       -0.1124
     11 H          -6.4059   -5.0946    0.0004 H       1  LIG1        0.1232
     12 C          -2.6845    1.5413   -0.0003 C.3     1  LIG1       -0.0377
     13 H          -3.3112    2.2468    0.5041 H       1  LIG1        0.0278
     14 H          -2.5273    1.8613   -1.0092 H       1  LIG1        0.0278
     15 H          -1.7430    1.4761    0.5040 H       1  LIG1        0.0278
     16 C          -6.8088    1.2233   -0.0003 C.ar    1  LIG1        0.1230
     17 C          -5.4065    1.3366   -0.0004 C.ar    1  LIG1        0.0348
     18 C          -4.8408    2.6129   -0.0003 C.ar    1  LIG1       -0.0447
     19 C          -5.6871    3.7231   -0.0003 C.ar    1  LIG1       -0.0203
     20 C          -7.0774    3.5076   -0.0004 C.ar    1  LIG1        0.0773
     21 N          -7.6401    2.2834   -0.0003 N.ar    1  LIG1       -0.2374
     22 H          -3.7491    2.7410   -0.0014 H       1  LIG1        0.0628
     23 C          -7.3823    0.0566   -0.0003 C.1     1  LIG1       -0.0491
     24 C          -7.9122   -1.0214   -0.0003 C.1     1  LIG1       -0.1124
     25 H          -8.3842   -1.9816   -0.0003 H       1  LIG1        0.1232
     26 C          -5.2094    4.9325   -0.0004 C.3     1  LIG1       -0.0216
     27 H          -5.8909    5.5852    0.5040 H       1  LIG1        0.0373
     28 H          -5.0784    5.2642   -1.0092 H       1  LIG1        0.0317
     29 H          -4.2658    4.9433    0.5040 H       1  LIG1        0.0317
     30 C          -7.4241    5.8310   -0.0000 C.ar    1  LIG1        0.0551
     31 C          -7.9061    4.5092   -0.0003 C.ar    1  LIG1        0.0225
     32 C          -9.2869    4.3031   -0.0001 C.ar    1  LIG1       -0.0456
     33 C         -10.1321    5.4140    0.0002 C.ar    1  LIG1       -0.0204
     34 C          -9.5548    6.6971    0.0002 C.ar    1  LIG1        0.0762
     35 N          -8.2251    6.9141    0.0002 N.ar    1  LIG1       -0.2503
     36 H          -9.7005    3.2847   -0.0012 H       1  LIG1        0.0628
     37 C          -6.1470    6.0737   -0.0001 C.3     1  LIG1        0.0139
     38 C          -4.9669    6.2980   -0.0002 C.3     1  LIG1       -0.0247
     39 H          -3.9157    6.4978   -0.0003 H       1  LIG1        0.0313
     40 C         -11.4250    5.2750    0.0002 C.3     1  LIG1       -0.0216
     41 H         -11.6862    4.3682    0.5046 H       1  LIG1        0.0317
     42 H         -11.7797    5.2368   -1.0087 H       1  LIG1        0.0317
     43 H         -11.8730    6.1056    0.5045 H       1  LIG1        0.0373
     44 C         -11.7025    7.6489    0.0008 C.ar    1  LIG1        0.0544
     45 C         -10.3001    7.7622    0.0005 C.ar    1  LIG1        0.0224
     46 C          -9.7344    9.0385    0.0008 C.ar    1  LIG1       -0.0465
     47 C         -10.5807   10.1487    0.0012 C.ar    1  LIG1       -0.0317
     48 C         -11.9710    9.9332    0.0013 C.ar    1  LIG1        0.0308
     49 N         -12.5338    8.7090    0.0012 N.ar    1  LIG1       -0.2587
     50 H          -8.6427    9.1666   -0.0004 H       1  LIG1        0.0628
     51 H         -12.7997   10.9348    0.0018 H       1  LIG1        0.0832
     52 C         -12.2760    6.4822    0.0006 C.3     1  LIG1        0.0139
     53 C         -12.8058    5.4042    0.0004 C.3     1  LIG1       -0.0247
     54 H         -13.2779    4.4439    0.0003 H       1  LIG1        0.0313
     55 C         -10.1030   11.3581    0.0014 C.3     1  LIG1       -0.0383
     56 H         -10.7845   12.0107    0.5058 H       1  LIG1        0.0278
     57 H          -9.9720   11.6899   -1.0074 H       1  LIG1        0.0278
     58 H          -9.1594   11.3688    0.5058 H       1  LIG1        0.0278
@<TRIPOS>BOND
     1    28    26    1
     2    14    12    1
     3    42    40    1
     4    57    55    1
     5    22    18    1
     6    36    32    1
     7     7     3    1
     8    50    46    1
     9    17     5    1
    10    17    16   ar
    11    17    18   ar
    12    20    21   ar
    13    20    31    1
    14    20    19   ar
    15    26    19    1
    16    26    29    1
    17    12     4    1
    18    12    15    1
    19    12    13    1
    20     5     6   ar
    21     5     4   ar
    22    16    23    1
    23    16    21   ar
    24    18    19   ar
    25    23    24    3
    26    24    25    1
    27    31    32   ar
    28    31    30   ar
    29    39    38    1
    30    38    37    1
    31    37    30    1
    32    37    27    1
    33     6     1   ar
    34     4     3   ar
    35    32    33   ar
    36    30    35   ar
    37     1     2   ar
    38     1     9    1
    39     2     3   ar
    40     2     8    1
    41    33    40    1
    42    33    34   ar
    43    40    41    1
    44    34    35   ar
    45    34    45    1
    46     9    10    3
    47    54    53    1
    48    10    11    1
    49    53    52    1
    50    45    44   ar
    51    45    46   ar
    52    52    44    1
    53    52    43    1
    54    44    49   ar
    55    46    47   ar
    56    49    48   ar
    57    47    48   ar
    58    47    55    1
    59    48    51    1
    60    55    58    1
    61    55    56    1
