@<TRIPOS>MOLECULE
mol_data/noopt/geoms/mol2/6ei6ei6ei6ei.out
 58 61 0 0 0
SMALL
GASTEIGER

@<TRIPOS>ATOM
      1 C          -4.5775   -2.0270    0.0001 C.ar    1  LIG1        0.1138
      2 C          -3.1706   -2.0270    0.0001 C.ar    1  LIG1       -0.0275
      3 C          -2.5039   -0.8004    0.0001 C.ar    1  LIG1       -0.0542
      4 C          -3.2580    0.3743   -0.0001 C.ar    1  LIG1       -0.0243
      5 C          -4.6612    0.2715   -0.0003 C.ar    1  LIG1        0.0779
      6 N          -5.3207   -0.9034   -0.0001 N.ar    1  LIG1       -0.2381
      7 H          -1.4054   -0.7607   -0.0009 H       1  LIG1        0.0622
      8 H          -2.5135   -3.1487    0.0004 H       1  LIG1        0.0645
      9 C          -5.2431   -3.1437    0.0002 C.1     1  LIG1       -0.0498
     10 C          -5.8581   -4.1755    0.0003 C.1     1  LIG1       -0.1124
     11 H          -6.4059   -5.0946    0.0004 H       1  LIG1        0.1232
     12 C          -2.6845    1.5413   -0.0003 C.3     1  LIG1       -0.0377
     13 H          -3.3112    2.2468    0.5041 H       1  LIG1        0.0278
     14 H          -2.5273    1.8613   -1.0092 H       1  LIG1        0.0278
     15 H          -1.7430    1.4761    0.5040 H       1  LIG1        0.0278
     16 C          -6.8088    1.2233   -0.0003 C.ar    1  LIG1        0.1230
     17 C          -5.4065    1.3366   -0.0004 C.ar    1  LIG1        0.0347
     18 C          -4.8408    2.6129   -0.0003 C.ar    1  LIG1       -0.0449
     19 C          -5.6871    3.7231   -0.0003 C.ar    1  LIG1       -0.0237
     20 C          -7.0774    3.5076   -0.0004 C.ar    1  LIG1        0.0780
     21 N          -7.6401    2.2834   -0.0003 N.ar    1  LIG1       -0.2374
     22 H          -3.7491    2.7410   -0.0014 H       1  LIG1        0.0628
     23 C          -7.3823    0.0566   -0.0003 C.1     1  LIG1       -0.0491
     24 C          -7.9122   -1.0214   -0.0003 C.1     1  LIG1       -0.1124
     25 H          -8.3842   -1.9816   -0.0003 H       1  LIG1        0.1232
     26 C          -5.2094    4.9325   -0.0004 C.3     1  LIG1       -0.0377
     27 H          -5.8909    5.5852    0.5040 H       1  LIG1        0.0278
     28 H          -5.0784    5.2642   -1.0092 H       1  LIG1        0.0278
     29 H          -4.2658    4.9433    0.5040 H       1  LIG1        0.0278
     30 C          -9.2948    4.2833   -0.0001 C.ar    1  LIG1        0.1230
     31 C          -7.9061    4.5092   -0.0003 C.ar    1  LIG1        0.0347
     32 C          -7.4450    5.8270   -0.0001 C.ar    1  LIG1       -0.0449
     33 C          -8.3780    6.8653    0.0002 C.ar    1  LIG1       -0.0237
     34 C          -9.7465    6.5385    0.0002 C.ar    1  LIG1        0.0780
     35 N         -10.2087    5.2730    0.0002 N.ar    1  LIG1       -0.2374
     36 H          -6.3672    6.0425   -0.0012 H       1  LIG1        0.0628
     37 C          -9.7724    3.0742   -0.0002 C.1     1  LIG1       -0.0491
     38 C         -10.2137    1.9570   -0.0002 C.1     1  LIG1       -0.1124
     39 H         -10.6069    0.9619   -0.0003 H       1  LIG1        0.1232
     40 C          -7.9993    8.1093    0.0002 C.3     1  LIG1       -0.0377
     41 H          -8.7311    8.7049    0.5046 H       1  LIG1        0.0278
     42 H          -7.8954    8.4505   -1.0087 H       1  LIG1        0.0278
     43 H          -7.0596    8.1960    0.5046 H       1  LIG1        0.0278
     44 C         -12.0191    7.1331    0.0008 C.ar    1  LIG1        0.1223
     45 C         -10.6531    7.4702    0.0005 C.ar    1  LIG1        0.0347
     46 C         -10.2997    8.8208    0.0008 C.ar    1  LIG1       -0.0455
     47 C         -11.3132    9.7806    0.0012 C.ar    1  LIG1       -0.0316
     48 C         -12.6510    9.3446    0.0013 C.ar    1  LIG1        0.0319
     49 N         -13.0098    8.0460    0.0012 N.ar    1  LIG1       -0.2458
     50 H          -9.2427    9.1225   -0.0004 H       1  LIG1        0.0628
     51 H         -13.6297   10.2002    0.0018 H       1  LIG1        0.0832
     52 C         -12.3978    5.8895    0.0006 C.1     1  LIG1       -0.0491
     53 C         -12.7477    4.7404    0.0004 C.1     1  LIG1       -0.1124
     54 H         -13.0594    3.7168    0.0003 H       1  LIG1        0.1232
     55 C         -11.0360   11.0510    0.0014 C.3     1  LIG1       -0.0383
     56 H         -11.8135   11.5857    0.5058 H       1  LIG1        0.0278
     57 H         -10.9599   11.3996   -1.0074 H       1  LIG1        0.0278
     58 H         -10.1063   11.2131    0.5058 H       1  LIG1        0.0278
@<TRIPOS>BOND
     1    28    26    1
     2    14    12    1
     3    42    40    1
     4    57    55    1
     5    22    18    1
     6    36    32    1
     7     7     3    1
     8    50    46    1
     9    17     5    1
    10    17    16   ar
    11    17    18   ar
    12    20    21   ar
    13    20    31    1
    14    20    19   ar
    15    26    19    1
    16    26    29    1
    17    26    27    1
    18    39    38    1
    19     5     6   ar
    20     5     4   ar
    21    12     4    1
    22    12    15    1
    23    12    13    1
    24    16    23    1
    25    16    21   ar
    26    18    19   ar
    27    23    24    3
    28    24    25    1
    29    31    30   ar
    30    31    32   ar
    31    38    37    3
    32    37    30    1
    33     6     1   ar
    34     4     3   ar
    35    30    35   ar
    36    32    33   ar
    37     1     2   ar
    38     1     9    1
    39     2     3   ar
    40     2     8    1
    41    35    34   ar
    42    34    33   ar
    43    34    45    1
    44    33    40    1
    45    40    43    1
    46    40    41    1
    47     9    10    3
    48    54    53    1
    49    10    11    1
    50    53    52    3
    51    45    44   ar
    52    45    46   ar
    53    52    44    1
    54    44    49   ar
    55    46    47   ar
    56    49    48   ar
    57    47    48   ar
    58    47    55    1
    59    48    51    1
    60    55    58    1
    61    55    56    1
