@<TRIPOS>MOLECULE
mol_data/noopt/geoms/mol2/6el12fa(220)4ea(180)4ia(160).out
 50 53 0 0 0
SMALL
GASTEIGER

@<TRIPOS>ATOM
      1 C          -4.5775   -2.0270    0.0001 C.ar    1  LIG1        0.1142
      2 C          -3.1706   -2.0270    0.0001 C.ar    1  LIG1       -0.0243
      3 C          -2.5039   -0.8004    0.0001 C.ar    1  LIG1       -0.0151
      4 C          -3.2580    0.3743   -0.0001 C.ar    1  LIG1        0.1492
      5 C          -4.6612    0.2715   -0.0003 C.ar    1  LIG1        0.1524
      6 N          -5.3207   -0.9034   -0.0001 N.ar    1  LIG1       -0.2315
      7 H          -1.4054   -0.7607   -0.0009 H       1  LIG1        0.0656
      8 H          -2.5135   -3.1487    0.0004 H       1  LIG1        0.0646
      9 C          -5.2431   -3.1437    0.0002 C.1     1  LIG1       -0.0498
     10 C          -5.8581   -4.1755    0.0003 C.1     1  LIG1       -0.1124
     11 H          -6.4059   -5.0946    0.0004 H       1  LIG1        0.1232
     12 O          -2.6846    1.5410   -0.0003 O.3     1  LIG1       -0.4929
     13 C          -1.2643    1.3748   -0.0004 C.3     1  LIG1        0.0789
     14 H          -0.7927    2.3353   -0.0008 H       1  LIG1        0.0660
     15 H          -0.9685    0.8326    0.8734 H       1  LIG1        0.0660
     16 H          -0.9687    0.8321   -0.8739 H       1  LIG1        0.0660
     17 C          -5.4065    1.3366   -0.0004 C.ar    1  LIG1        0.1985
     18 C          -6.6090    1.6954   -0.5735 C.ar    1  LIG1        0.1649
     19 C          -6.8755    3.0574   -0.1601 C.ar    1  LIG1        0.0265
     20 C          -5.8177    3.4407    0.6386 C.ar    1  LIG1        0.1406
     21 O          -4.8990    2.3967    0.7521 O.2     1  LIG1       -0.4493
     22 O          -7.3730    0.9730   -1.3381 O.3     1  LIG1       -0.5031
     23 H          -6.9395    0.1374   -1.5265 H       1  LIG1        0.2923
     24 H          -7.9179    3.7596   -0.4920 H       1  LIG1        0.0692
     25 C          -6.4843    5.4548    1.6400 C.ar    1  LIG1        0.0359
     26 C          -6.0791    6.6060    2.3429 C.ar    1  LIG1       -0.0379
     27 C          -5.4911    4.5177    1.2891 C.ar    1  LIG1        0.0328
     28 C          -4.7447    6.8164    2.6830 C.ar    1  LIG1       -0.0164
     29 H          -6.8292    7.3421    2.6233 H       1  LIG1        0.0636
     30 C          -4.1588    4.7273    1.6284 C.ar    1  LIG1       -0.0493
     31 C          -3.7761    5.8770    2.3272 C.ar    1  LIG1       -0.0533
     32 H          -3.4116    3.9899    1.3464 H       1  LIG1        0.0625
     33 C          -7.7439    5.3140    1.3511 C.1     1  LIG1       -0.0689
     34 C          -8.9078    5.1838    1.0842 C.1     1  LIG1       -0.1139
     35 H          -9.9446    5.0678    0.8464 H       1  LIG1        0.1232
     36 H          -2.5292    6.0676    2.6415 H       1  LIG1        0.0624
     37 C          -5.3811    8.6176    4.0449 C.ar    1  LIG1       -0.0427
     38 C          -4.9637    9.7746    4.7307 C.ar    1  LIG1       -0.0583
     39 C          -4.4058    7.8903    3.3324 C.ar    1  LIG1       -0.0149
     40 C          -3.6344   10.1906    4.7100 C.ar    1  LIG1       -0.0615
     41 H          -5.7000   10.3507    5.2866 H       1  LIG1        0.0620
     42 C          -3.0786    8.3052    3.3114 C.ar    1  LIG1       -0.0538
     43 C          -2.6834    9.4572    3.9994 C.ar    1  LIG1       -0.0612
     44 H          -2.3452    7.7274    2.7546 H       1  LIG1        0.0624
     45 H          -3.2838   11.2638    5.3546 H       1  LIG1        0.0618
     46 C          -6.6354    8.2796    4.1015 C.3     1  LIG1       -0.0391
     47 H          -6.7310    7.3490    4.6210 H       1  LIG1        0.0278
     48 H          -7.0220    8.1754    3.1092 H       1  LIG1        0.0278
     49 H          -7.1856    9.0362    4.6209 H       1  LIG1        0.0278
     50 H          -1.4414    9.8402    3.9760 H       1  LIG1        0.0618
@<TRIPOS>BOND
     1    23    22    1
     2    22    18    1
     3    16    13    1
     4    18    19   ar
     5    18    17   ar
     6    24    19    1
     7    19    20   ar
     8     7     3    1
     9    14    13    1
    10    13    12    1
    11    13    15    1
    12    17     5    1
    13    17    21   ar
    14     5     4   ar
    15     5     6   ar
    16    12     4    1
    17     4     3   ar
    18     6     1   ar
    19     1     2   ar
    20     1     9    1
    21     3     2   ar
    22     2     8    1
    23     9    10    3
    24    10    11    1
    25    20    21   ar
    26    20    27    1
    27    35    34    1
    28    34    33    3
    29    27    30   ar
    30    27    25   ar
    31    32    30    1
    32    33    25    1
    33    30    31   ar
    34    25    26   ar
    35    31    36    1
    36    31    28   ar
    37    26    29    1
    38    26    28   ar
    39    28    39    1
    40    44    42    1
    41    48    46    1
    42    42    39   ar
    43    42    43   ar
    44    39    37   ar
    45    50    43    1
    46    43    40   ar
    47    37    46    1
    48    37    38   ar
    49    46    49    1
    50    46    47    1
    51    40    38   ar
    52    40    45    1
    53    38    41    1
