@<TRIPOS>MOLECULE
mol_data/noopt/geoms/mol2/6el12ih-4aa-12hi-.out
 51 54 0 0 0
SMALL
GASTEIGER

@<TRIPOS>ATOM
      1 C          -4.5775   -2.0270    0.0001 C.ar    1  LIG1        0.1142
      2 C          -3.1706   -2.0270    0.0001 C.ar    1  LIG1       -0.0243
      3 C          -2.5039   -0.8004    0.0001 C.ar    1  LIG1       -0.0151
      4 C          -3.2580    0.3743   -0.0001 C.ar    1  LIG1        0.1491
      5 C          -4.6612    0.2715   -0.0003 C.ar    1  LIG1        0.1491
      6 N          -5.3207   -0.9034   -0.0001 N.ar    1  LIG1       -0.2316
      7 H          -1.4054   -0.7607   -0.0009 H       1  LIG1        0.0656
      8 H          -2.5135   -3.1487    0.0004 H       1  LIG1        0.0646
      9 C          -5.2431   -3.1437    0.0002 C.1     1  LIG1       -0.0498
     10 C          -5.8581   -4.1755    0.0003 C.1     1  LIG1       -0.1124
     11 H          -6.4059   -5.0946    0.0004 H       1  LIG1        0.1232
     12 O          -2.6846    1.5410   -0.0003 O.3     1  LIG1       -0.4929
     13 C          -1.2643    1.3748   -0.0004 C.3     1  LIG1        0.0789
     14 H          -0.7927    2.3353   -0.0008 H       1  LIG1        0.0660
     15 H          -0.9685    0.8326    0.8734 H       1  LIG1        0.0660
     16 H          -0.9687    0.8321   -0.8739 H       1  LIG1        0.0660
     17 C          -5.4065    1.3366   -0.0004 C.ar    1  LIG1        0.1621
     18 C          -5.1777    2.6969    0.0143 C.ar    1  LIG1        0.0183
     19 C          -6.4770    3.3362    0.0035 C.ar    1  LIG1        0.0746
     20 C          -7.4140    2.3237   -0.0171 C.ar    1  LIG1        0.1565
     21 O          -6.7784    1.0815   -0.0201 O.2     1  LIG1       -0.4510
     22 C          -4.0318    3.3111    0.0342 C.3     1  LIG1       -0.0343
     23 H          -4.1369    4.2459    0.5440 H       1  LIG1        0.0279
     24 H          -3.7039    3.4869   -0.9691 H       1  LIG1        0.0279
     25 H          -3.3115    2.7058    0.5439 H       1  LIG1        0.0279
     26 N          -6.6906    4.6186    0.0120 N.pl3   1  LIG1       -0.3548
     27 H          -5.9404    5.0845   -0.4572 H       1  LIG1        0.1424
     28 H          -7.5512    4.8163   -0.4572 H       1  LIG1        0.1424
     29 C          -9.4710    3.4518   -0.0210 C.ar    1  LIG1       -0.0504
     30 C         -10.8741    3.3331   -0.0387 C.ar    1  LIG1       -0.0504
     31 C          -8.7124    2.2634   -0.0340 C.ar    1  LIG1        0.0192
     32 C         -11.4967    2.0872   -0.0686 C.ar    1  LIG1        0.0191
     33 H         -11.4785    4.2374   -0.0289 H       1  LIG1        0.0625
     34 C          -9.3334    1.0194   -0.0638 C.ar    1  LIG1       -0.0504
     35 C         -10.7287    0.9222   -0.0814 C.ar    1  LIG1       -0.0504
     36 H          -8.7265    0.1176   -0.0732 H       1  LIG1        0.0625
     37 H          -8.9480    4.6417    0.0065 H       1  LIG1        0.0625
     38 H         -11.3036   -0.2434   -0.1092 H       1  LIG1        0.0625
     39 C         -12.7945    2.0144   -0.0843 C.ar    1  LIG1        0.1556
     40 C         -13.8305    2.9252   -0.0963 C.ar    1  LIG1        0.0739
     41 C         -15.0580    2.1572   -0.1117 C.ar    1  LIG1        0.0086
     42 C         -14.6905    0.8273   -0.1082 C.ar    1  LIG1        0.0973
     43 O         -13.2999    0.7135   -0.0915 O.2     1  LIG1       -0.4608
     44 H         -15.3229   -0.3085   -0.1166 H       1  LIG1        0.1033
     45 N         -13.7492    4.2227   -0.0943 N.pl3   1  LIG1       -0.3548
     46 H         -12.9135    4.5051   -0.5652 H       1  LIG1        0.1424
     47 H         -14.5432    4.6071   -0.5652 H       1  LIG1        0.1424
     48 C         -16.2608    2.6510   -0.1259 C.3     1  LIG1       -0.0350
     49 H         -16.9276    1.9803    0.3746 H       1  LIG1        0.0279
     50 H         -16.5806    2.7822   -1.1386 H       1  LIG1        0.0279
     51 H         -16.2640    3.5967    0.3745 H       1  LIG1        0.0279
@<TRIPOS>BOND
     1    50    48    1
     2    24    22    1
     3    16    13    1
     4    47    45    1
     5    46    45    1
     6    28    26    1
     7    27    26    1
     8    48    41    1
     9    48    51    1
    10    48    49    1
    11    44    42    1
    12    41    42   ar
    13    41    40   ar
    14    38    35    1
    15    42    43   ar
    16    40    45    1
    17    40    39   ar
    18    43    39   ar
    19    39    32    1
    20    35    32   ar
    21    35    34   ar
    22    36    34    1
    23    32    30   ar
    24    34    31   ar
    25    30    33    1
    26    30    29   ar
    27    31    29   ar
    28    31    20    1
    29    29    37    1
    30    21    20   ar
    31    21    17   ar
    32    20    19   ar
    33     7     3    1
    34    14    13    1
    35    13    12    1
    36    13    15    1
    37    17     5    1
    38    17    18   ar
    39     5     4   ar
    40     5     6   ar
    41    12     4    1
    42     4     3   ar
    43     6     1   ar
    44     2     3   ar
    45     2     1   ar
    46     2     8    1
    47     1     9    1
    48     9    10    3
    49    10    11    1
    50    19    26    1
    51    19    18   ar
    52    18    22    1
    53    22    25    1
    54    22    23    1
