@<TRIPOS>MOLECULE
mol_data/noopt/geoms/mol2/6el13fd(260)6hf(270)13lh(170).out
 53 56 0 0 0
SMALL
GASTEIGER

@<TRIPOS>ATOM
      1 C          -4.5775   -2.0270    0.0001 C.ar    1  LIG1        0.1141
      2 C          -3.1706   -2.0270    0.0001 C.ar    1  LIG1       -0.0243
      3 C          -2.5039   -0.8004    0.0001 C.ar    1  LIG1       -0.0151
      4 C          -3.2580    0.3743   -0.0001 C.ar    1  LIG1        0.1476
      5 C          -4.6612    0.2715   -0.0003 C.ar    1  LIG1        0.1335
      6 N          -5.3207   -0.9034   -0.0001 N.ar    1  LIG1       -0.2331
      7 H          -1.4054   -0.7607   -0.0009 H       1  LIG1        0.0656
      8 H          -2.5135   -3.1487    0.0004 H       1  LIG1        0.0646
      9 C          -5.2431   -3.1437    0.0002 C.1     1  LIG1       -0.0498
     10 C          -5.8581   -4.1755    0.0003 C.1     1  LIG1       -0.1124
     11 H          -6.4059   -5.0946    0.0004 H       1  LIG1        0.1232
     12 O          -2.6846    1.5410   -0.0003 O.3     1  LIG1       -0.4929
     13 C          -1.2643    1.3748   -0.0004 C.3     1  LIG1        0.0789
     14 H          -0.7927    2.3353   -0.0008 H       1  LIG1        0.0660
     15 H          -0.9685    0.8326    0.8734 H       1  LIG1        0.0660
     16 H          -0.9687    0.8321   -0.8739 H       1  LIG1        0.0660
     17 C          -5.4065    1.3366   -0.0004 C.ar    1  LIG1        0.1123
     18 C          -6.0721    1.9472   -1.0163 C.ar    1  LIG1        0.1617
     19 C          -6.7398    3.0881   -0.4655 C.ar    1  LIG1        0.1190
     20 C          -6.4542    3.1234    0.8631 C.ar    1  LIG1        0.0716
     21 N          -5.6379    2.0532    1.1520 N.ar    1  LIG1       -0.3488
     22 H          -5.2739    1.8326    2.0503 H       1  LIG1        0.1661
     23 O          -6.0946    1.5640   -2.2584 O.3     1  LIG1       -0.5034
     24 H          -5.1968    1.4164   -2.5645 H       1  LIG1        0.2923
     25 N          -8.1385    4.6830   -1.6844 N.1     1  LIG1       -0.1907
     26 C          -7.4830    3.9355   -1.1132 C.1     1  LIG1        0.1050
     27 C          -6.6808    3.6362    3.1444 C.ar    1  LIG1        0.1263
     28 C          -6.8255    3.9630    1.7836 C.ar    1  LIG1        0.0427
     29 C          -7.3736    5.2030    1.4504 C.ar    1  LIG1       -0.0056
     30 C          -7.7555    6.0669    2.4782 C.ar    1  LIG1        0.1450
     31 C          -7.5712    5.6499    3.8093 C.ar    1  LIG1        0.1341
     32 N          -7.0438    4.4574    4.1486 N.ar    1  LIG1       -0.2265
     33 H          -7.5031    5.4929    0.3981 H       1  LIG1        0.0662
     34 N          -6.1756    2.4937    3.5044 N.pl3   1  LIG1       -0.3426
     35 H          -6.7401    1.7512    3.1438 H       1  LIG1        0.1437
     36 H          -5.2466    2.4115    3.1437 H       1  LIG1        0.1437
     37 O          -8.2708    7.2322    2.2200 O.3     1  LIG1       -0.5045
     38 H          -9.2255    7.1534    2.1564 H       1  LIG1        0.2922
     39 C          -7.9110    6.4190    4.8007 C.ar    1  LIG1        0.1127
     40 C          -9.0243    6.4121    5.5808 C.ar    1  LIG1        0.1674
     41 C          -8.8904    7.4790    6.5266 C.ar    1  LIG1        0.0851
     42 C          -7.7003    8.0898    6.2840 C.ar    1  LIG1        0.0267
     43 N          -7.0977    7.4443    5.2279 N.ar    1  LIG1       -0.3548
     44 H          -6.2152    7.6806    4.8363 H       1  LIG1        0.1655
     45 H          -7.1360    9.1018    6.8733 H       1  LIG1        0.0827
     46 O         -10.0250    5.5881    5.4823 O.3     1  LIG1       -0.4911
     47 C         -11.2493    6.3263    5.4461 C.3     1  LIG1        0.0790
     48 H         -12.0726    5.6477    5.3648 H       1  LIG1        0.0660
     49 H         -11.3469    6.8995    6.3443 H       1  LIG1        0.0660
     50 H         -11.2444    6.9839    4.6021 H       1  LIG1        0.0660
     51 N          -9.7464    7.8060    7.4488 N.pl3   1  LIG1       -0.3540
     52 H          -9.9869    8.7719    7.3530 H       1  LIG1        0.1425
     53 H         -10.5696    7.2464    7.3529 H       1  LIG1        0.1425
@<TRIPOS>BOND
     1    24    23    1
     2    23    18    1
     3    25    26    3
     4    26    19    1
     5    18    19   ar
     6    18    17   ar
     7    16    13    1
     8    19    20   ar
     9     7     3    1
    10    14    13    1
    11    13    12    1
    12    13    15    1
    13    17     5    1
    14    17    21   ar
    15    12     4    1
    16     5     6   ar
    17     5     4   ar
    18     6     1   ar
    19     4     3   ar
    20     1     2   ar
    21     1     9    1
    22     3     2   ar
    23     2     8    1
    24     9    10    3
    25    10    11    1
    26    33    29    1
    27    20    21   ar
    28    20    28    1
    29    21    22    1
    30    29    28   ar
    31    29    30   ar
    32    28    27   ar
    33    38    37    1
    34    37    30    1
    35    30    31   ar
    36    36    34    1
    37    35    34    1
    38    27    34    1
    39    27    32   ar
    40    31    32   ar
    41    31    39    1
    42    50    47    1
    43    39    43   ar
    44    39    40   ar
    45    44    43    1
    46    43    42   ar
    47    48    47    1
    48    47    46    1
    49    47    49    1
    50    46    40    1
    51    40    41   ar
    52    42    41   ar
    53    42    45    1
    54    41    51    1
    55    53    51    1
    56    52    51    1
