@<TRIPOS>MOLECULE
mol_data/noopt/geoms/mol2/6el13ah-6hd12il-.out
 53 56 0 0 0
SMALL
GASTEIGER

@<TRIPOS>ATOM
      1 C          -4.5775   -2.0270    0.0001 C.ar    1  LIG1        0.1141
      2 C          -3.1706   -2.0270    0.0001 C.ar    1  LIG1       -0.0243
      3 C          -2.5039   -0.8004    0.0001 C.ar    1  LIG1       -0.0151
      4 C          -3.2580    0.3743   -0.0001 C.ar    1  LIG1        0.1475
      5 C          -4.6612    0.2715   -0.0003 C.ar    1  LIG1        0.1300
      6 N          -5.3207   -0.9034   -0.0001 N.ar    1  LIG1       -0.2333
      7 H          -1.4054   -0.7607   -0.0009 H       1  LIG1        0.0656
      8 H          -2.5135   -3.1487    0.0004 H       1  LIG1        0.0646
      9 C          -5.2431   -3.1437    0.0002 C.1     1  LIG1       -0.0498
     10 C          -5.8581   -4.1755    0.0003 C.1     1  LIG1       -0.1124
     11 H          -6.4059   -5.0946    0.0004 H       1  LIG1        0.1232
     12 O          -2.6846    1.5410   -0.0003 O.3     1  LIG1       -0.4929
     13 C          -1.2643    1.3748   -0.0004 C.3     1  LIG1        0.0789
     14 H          -0.7927    2.3353   -0.0008 H       1  LIG1        0.0660
     15 H          -0.9685    0.8326    0.8734 H       1  LIG1        0.0660
     16 H          -0.9687    0.8321   -0.8739 H       1  LIG1        0.0660
     17 C          -5.4065    1.3366   -0.0004 C.ar    1  LIG1        0.0708
     18 C          -5.0647    2.6523    0.0158 C.ar    1  LIG1       -0.0135
     19 C          -6.2798    3.4100    0.0080 C.ar    1  LIG1        0.0509
     20 C          -7.3107    2.5241   -0.0144 C.ar    1  LIG1        0.0712
     21 N          -6.7805    1.2536   -0.0191 N.ar    1  LIG1       -0.3513
     22 H          -7.3063    0.4102   -0.0343 H       1  LIG1        0.1660
     23 H          -3.8561    3.1306    0.0362 H       1  LIG1        0.0658
     24 N          -6.3823    4.7059    0.0196 N.pl3   1  LIG1       -0.3563
     25 H          -5.5949    5.1067   -0.4488 H       1  LIG1        0.1424
     26 H          -7.2228    4.9780   -0.4488 H       1  LIG1        0.1424
     27 C          -9.4849    1.6348   -0.0368 C.ar    1  LIG1        0.1263
     28 C          -8.5951    2.7246   -0.0290 C.ar    1  LIG1        0.0409
     29 C          -9.1234    4.0168   -0.0369 C.ar    1  LIG1       -0.0297
     30 C         -10.5102    4.1757   -0.0524 C.ar    1  LIG1        0.0815
     31 C         -11.3180    3.0238   -0.0594 C.ar    1  LIG1        0.1257
     32 N         -10.8252    1.7698   -0.0517 N.ar    1  LIG1       -0.2274
     33 H          -8.4594    4.8927   -0.0322 H       1  LIG1        0.0639
     34 N          -9.0410    0.4130   -0.0298 N.pl3   1  LIG1       -0.3426
     35 H          -9.6937   -0.1815   -0.4994 H       1  LIG1        0.1437
     36 H          -8.1589    0.3761   -0.4994 H       1  LIG1        0.1437
     37 N         -11.5282    6.4003   -0.0676 N.1     1  LIG1       -0.1908
     38 C         -11.0511    5.3577   -0.0605 C.1     1  LIG1        0.1014
     39 C         -12.6143    3.1202   -0.0737 C.ar    1  LIG1        0.1608
     40 C         -13.5232    4.1579   -0.0846 C.ar    1  LIG1        0.0385
     41 C         -14.8401    3.5558   -0.0986 C.ar    1  LIG1        0.1612
     42 C         -14.6485    2.1894   -0.0954 C.ar    1  LIG1        0.1344
     43 O         -13.2845    1.8960   -0.0803 O.2     1  LIG1       -0.4573
     44 H         -15.4231    1.1454   -0.1031 H       1  LIG1        0.1068
     45 C         -13.2741    5.4341   -0.0828 C.3     1  LIG1       -0.0326
     46 H         -14.0633    5.9509    0.4221 H       1  LIG1        0.0280
     47 H         -13.2055    5.7856   -1.0911 H       1  LIG1        0.0280
     48 H         -12.3484    5.6160    0.4221 H       1  LIG1        0.0280
     49 O         -15.9684    4.2015   -0.1115 O.3     1  LIG1       -0.4917
     50 C         -15.7130    5.6085   -0.1163 C.3     1  LIG1        0.0789
     51 H         -16.6418    6.1396   -0.1271 H       1  LIG1        0.0660
     52 H         -15.1607    5.8738    0.7609 H       1  LIG1        0.0660
     53 H         -15.1454    5.8650   -0.9863 H       1  LIG1        0.0660
@<TRIPOS>BOND
     1    47    45    1
     2    53    50    1
     3    16    13    1
     4    36    34    1
     5    35    34    1
     6    26    24    1
     7    25    24    1
     8    51    50    1
     9    50    49    1
    10    50    52    1
    11    49    41    1
    12    44    42    1
    13    41    42   ar
    14    41    40   ar
    15    42    43   ar
    16    40    45    1
    17    40    39   ar
    18    45    48    1
    19    45    46    1
    20    43    39   ar
    21    39    31    1
    22    37    38    3
    23    38    30    1
    24    31    30   ar
    25    31    32   ar
    26    30    29   ar
    27    32    27   ar
    28    29    33    1
    29    29    28   ar
    30    27    34    1
    31    27    28   ar
    32    22    21    1
    33    28    20    1
    34    21    20   ar
    35    21    17   ar
    36    20    19   ar
    37     7     3    1
    38    14    13    1
    39    13    12    1
    40    13    15    1
    41    17     5    1
    42    17    18   ar
    43     5     4   ar
    44     5     6   ar
    45    12     4    1
    46     4     3   ar
    47     6     1   ar
    48     2     3   ar
    49     2     1   ar
    50     2     8    1
    51     1     9    1
    52     9    10    3
    53    10    11    1
    54    19    18   ar
    55    19    24    1
    56    18    23    1
