@<TRIPOS>MOLECULE
mol_data/noopt/geoms/mol2/6el6el-.out
 32 34 0 0 0
SMALL
GASTEIGER

@<TRIPOS>ATOM
      1 C          -4.5775   -2.0270    0.0001 C.ar    1  LIG1        0.1141
      2 C          -3.1706   -2.0270    0.0001 C.ar    1  LIG1       -0.0243
      3 C          -2.5039   -0.8004    0.0001 C.ar    1  LIG1       -0.0152
      4 C          -3.2580    0.3743   -0.0001 C.ar    1  LIG1        0.1469
      5 C          -4.6612    0.2715   -0.0003 C.ar    1  LIG1        0.1157
      6 N          -5.3207   -0.9034   -0.0001 N.ar    1  LIG1       -0.2347
      7 H          -1.4054   -0.7607   -0.0009 H       1  LIG1        0.0656
      8 H          -2.5135   -3.1487    0.0004 H       1  LIG1        0.0646
      9 C          -5.2431   -3.1437    0.0002 C.1     1  LIG1       -0.0498
     10 C          -5.8581   -4.1755    0.0003 C.1     1  LIG1       -0.1124
     11 H          -6.4059   -5.0946    0.0004 H       1  LIG1        0.1232
     12 O          -2.6846    1.5410   -0.0003 O.3     1  LIG1       -0.4860
     13 C          -1.2643    1.3748   -0.0004 C.3     1  LIG1       -0.0268
     14 H          -0.7927    2.3353   -0.0008 H       1  LIG1        0.0265
     15 H          -0.9685    0.8326    0.8734 H       1  LIG1        0.0265
     16 H          -0.9687    0.8321   -0.8739 H       1  LIG1        0.0265
     17 C          -4.8196    2.6153   -0.0003 C.ar    1  LIG1        0.0625
     18 C          -5.4065    1.3366   -0.0004 C.ar    1  LIG1        0.0294
     19 C          -6.7994    1.2424   -0.0003 C.ar    1  LIG1       -0.0074
     20 C          -7.5524    2.4178   -0.0003 C.ar    1  LIG1        0.1387
     21 C          -6.8736    3.6502   -0.0004 C.ar    1  LIG1        0.0695
     22 N          -5.5307    3.7594   -0.0003 N.ar    1  LIG1       -0.2549
     23 H          -7.2937    0.2606   -0.0014 H       1  LIG1        0.0662
     24 H          -7.5307    4.7719   -0.0003 H       1  LIG1        0.0867
     25 C          -3.5271    2.7543   -0.0003 C.3     1  LIG1        0.0808
     26 C          -2.3328    2.8828   -0.0002 C.3     1  LIG1        0.1105
     27 H          -1.2689    2.9973   -0.0002 H       1  LIG1        0.0740
     28 O          -8.8520    2.3834   -0.0004 O.3     1  LIG1       -0.4936
     29 C          -9.3648    3.7183   -0.0005 C.3     1  LIG1        0.0789
     30 H         -10.4344    3.6895   -0.0008 H       1  LIG1        0.0660
     31 H          -9.0221    4.2321    0.8733 H       1  LIG1        0.0660
     32 H          -9.0217    4.2321   -0.8740 H       1  LIG1        0.0660
@<TRIPOS>BOND
     1    32    29    1
     2    16    13    1
     3    23    19    1
     4     7     3    1
     5    14    13    1
     6    30    29    1
     7    29    28    1
     8    29    31    1
     9    13    26    1
    10    13    15    1
    11    18    19   ar
    12    18     5    1
    13    18    17   ar
    14    28    20    1
    15    21    20   ar
    16    21    24    1
    17    21    22   ar
    18    19    20   ar
    19    12    26    1
    20    12     4    1
    21     5     6   ar
    22     5     4   ar
    23    17    22   ar
    24    17    25    1
    25    25    26    1
    26    26    27    1
    27     6     1   ar
    28     4     3   ar
    29     1     2   ar
    30     1     9    1
    31     3     2   ar
    32     2     8    1
    33     9    10    3
    34    10    11    1
