@<TRIPOS>MOLECULE
mol_data/noopt/geoms/mol2/6el6de(180)13hh(300)4ah(140).out
 53 57 0 0 0
SMALL
GASTEIGER

@<TRIPOS>ATOM
      1 C          -4.5775   -2.0270    0.0001 C.ar    1  LIG1        0.1141
      2 C          -3.1706   -2.0270    0.0001 C.ar    1  LIG1       -0.0242
      3 C          -2.5039   -0.8004    0.0001 C.ar    1  LIG1       -0.0127
      4 C          -3.2580    0.3743   -0.0001 C.ar    1  LIG1        0.1743
      5 C          -4.6612    0.2715   -0.0003 C.ar    1  LIG1        0.1181
      6 N          -5.3207   -0.9034   -0.0001 N.ar    1  LIG1       -0.2346
      7 H          -1.4054   -0.7607   -0.0009 H       1  LIG1        0.0656
      8 H          -2.5135   -3.1487    0.0004 H       1  LIG1        0.0646
      9 C          -5.2431   -3.1437    0.0002 C.1     1  LIG1       -0.0498
     10 C          -5.8581   -4.1755    0.0003 C.1     1  LIG1       -0.1124
     11 H          -6.4059   -5.0946    0.0004 H       1  LIG1        0.1232
     12 O          -2.6846    1.5410   -0.0003 O.3     1  LIG1       -0.4010
     13 C          -1.2643    1.3748   -0.0004 C.3     1  LIG1        0.0249
     14 H          -0.7927    2.3353   -0.0008 H       1  LIG1        0.0424
     15 H          -0.9685    0.8326    0.8734 H       1  LIG1        0.0424
     16 H          -0.9687    0.8321   -0.8739 H       1  LIG1        0.0424
     17 C          -4.8196    2.6153   -0.0006 C.ar    1  LIG1        0.0795
     18 C          -5.4065    1.3366   -0.0004 C.ar    1  LIG1        0.0286
     19 C          -6.7994    1.2424   -0.0006 C.ar    1  LIG1       -0.0331
     20 C          -7.5524    2.4178   -0.0008 C.ar    1  LIG1        0.0528
     21 C          -6.8736    3.6502   -0.0008 C.ar    1  LIG1        0.1047
     22 N          -5.5307    3.7594   -0.0008 N.ar    1  LIG1       -0.2460
     23 H          -7.2937    0.2606    0.0006 H       1  LIG1        0.0638
     24 N          -2.3870    2.8770   -0.0005 N.4     1  LIG1       -0.1285
     25 C          -3.5271    2.7543   -0.0006 C.3     1  LIG1        0.1576
     26 C          -8.8520    2.3834   -0.0008 C.1     1  LIG1       -0.0674
     27 C         -10.0528    2.3516   -0.0008 C.1     1  LIG1       -0.1138
     28 H         -11.1224    2.3232   -0.0009 H       1  LIG1        0.1232
     29 C          -7.5308    4.7719   -0.0011 C.ar    1  LIG1        0.0894
     30 C          -7.5023    5.8104   -0.8778 C.ar    1  LIG1        0.0733
     31 C          -8.4247    6.7971   -0.4020 C.ar    1  LIG1        0.0718
     32 C          -8.9775    6.3173    0.7435 C.ar    1  LIG1        0.0698
     33 N          -8.4327    5.0779    0.9928 N.ar    1  LIG1       -0.3500
     34 H          -8.6556    4.4960    1.7673 H       1  LIG1        0.1661
     35 N          -6.7700    5.8903   -1.9490 N.pl3   1  LIG1       -0.3548
     36 H          -6.8799    5.0570   -2.4907 H       1  LIG1        0.1424
     37 H          -7.0570    6.6803   -2.4908 H       1  LIG1        0.1424
     38 N          -8.6879    7.9414   -0.9600 N.pl3   1  LIG1       -0.3549
     39 H          -7.9143    8.2206   -1.5289 H       1  LIG1        0.1424
     40 H          -9.5057    7.8545   -1.5289 H       1  LIG1        0.1424
     41 C         -10.4066    6.0765    2.5884 C.ar    1  LIG1       -0.0525
     42 C         -11.3627    6.6911    3.4200 C.ar    1  LIG1       -0.0594
     43 C          -9.8623    6.8430    1.5377 C.ar    1  LIG1        0.0019
     44 C         -11.7603    8.0106    3.2165 C.ar    1  LIG1       -0.0410
     45 H         -11.7955    6.1177    4.2366 H       1  LIG1        0.0618
     46 C         -10.2589    8.1603    1.3341 C.ar    1  LIG1       -0.0319
     47 C         -11.2098    8.7533    2.1712 C.ar    1  LIG1        0.0252
     48 H          -9.8246    8.7305    0.5169 H       1  LIG1        0.0642
     49 H         -12.6454    8.5467    4.0035 H       1  LIG1        0.0636
     50 H         -10.0755    4.8424    2.8282 H       1  LIG1        0.0624
     51 N         -11.5768    9.9851    1.9760 N.pl3   1  LIG1       -0.3579
     52 H         -10.8681   10.4662    1.4599 H       1  LIG1        0.1423
     53 H         -12.4331    9.9999    1.4599 H       1  LIG1        0.1423
@<TRIPOS>BOND
     1    37    35    1
     2    36    35    1
     3    35    30    1
     4    40    38    1
     5    39    38    1
     6    38    31    1
     7    30    31   ar
     8    30    29   ar
     9    16    13    1
    10    31    32   ar
    11    29    21    1
    12    29    33   ar
    13     7     3    1
    14    28    27    1
    15    27    26    3
    16    22    21   ar
    17    22    17   ar
    18    21    20   ar
    19    26    20    1
    20    20    19   ar
    21    14    13    1
    22    17    25    1
    23    17    18   ar
    24    19    18   ar
    25    19    23    1
    26    25    24    1
    27    24    13    1
    28    24    12    1
    29    13    15    1
    30    18     5    1
    31     5     6   ar
    32     5     4   ar
    33    12     4    1
    34     6     1   ar
    35     4     3   ar
    36     1     2   ar
    37     1     9    1
    38     3     2   ar
    39     2     8    1
    40     9    10    3
    41    10    11    1
    42    48    46    1
    43    32    33   ar
    44    32    43    1
    45    33    34    1
    46    46    43   ar
    47    46    47   ar
    48    53    51    1
    49    52    51    1
    50    43    41   ar
    51    51    47    1
    52    47    44   ar
    53    41    50    1
    54    41    42   ar
    55    44    42   ar
    56    44    49    1
    57    42    45    1
