@<TRIPOS>MOLECULE
mol_data/noopt/geoms/mol2/6el6el6el6el-.out
 62 66 0 0 0
SMALL
GASTEIGER

@<TRIPOS>ATOM
      1 C          -4.5775   -2.0270    0.0001 C.ar    1  LIG1        0.1141
      2 C          -3.1706   -2.0270    0.0001 C.ar    1  LIG1       -0.0243
      3 C          -2.5039   -0.8004    0.0001 C.ar    1  LIG1       -0.0152
      4 C          -3.2580    0.3743   -0.0001 C.ar    1  LIG1        0.1461
      5 C          -4.6612    0.2715   -0.0003 C.ar    1  LIG1        0.1166
      6 N          -5.3207   -0.9034   -0.0001 N.ar    1  LIG1       -0.2347
      7 H          -1.4054   -0.7607   -0.0009 H       1  LIG1        0.0656
      8 H          -2.5135   -3.1487    0.0004 H       1  LIG1        0.0646
      9 C          -5.2431   -3.1437    0.0002 C.1     1  LIG1       -0.0498
     10 C          -5.8581   -4.1755    0.0003 C.1     1  LIG1       -0.1124
     11 H          -6.4059   -5.0946    0.0004 H       1  LIG1        0.1232
     12 O          -2.6846    1.5410   -0.0003 O.3     1  LIG1       -0.4930
     13 C          -1.2643    1.3748   -0.0004 C.3     1  LIG1        0.0789
     14 H          -0.7927    2.3353   -0.0008 H       1  LIG1        0.0660
     15 H          -0.9685    0.8326    0.8734 H       1  LIG1        0.0660
     16 H          -0.9687    0.8321   -0.8739 H       1  LIG1        0.0660
     17 C          -6.8088    1.2233   -0.0003 C.ar    1  LIG1        0.1233
     18 C          -5.4065    1.3366   -0.0004 C.ar    1  LIG1        0.0413
     19 C          -4.8408    2.6129   -0.0003 C.ar    1  LIG1       -0.0059
     20 C          -5.6871    3.7231   -0.0003 C.ar    1  LIG1        0.1467
     21 C          -7.0774    3.5076   -0.0004 C.ar    1  LIG1        0.1167
     22 N          -7.6401    2.2834   -0.0003 N.ar    1  LIG1       -0.2340
     23 H          -3.7491    2.7410   -0.0014 H       1  LIG1        0.0662
     24 C          -7.3823    0.0566   -0.0003 C.1     1  LIG1       -0.0491
     25 C          -7.9122   -1.0214   -0.0003 C.1     1  LIG1       -0.1124
     26 H          -8.3842   -1.9816   -0.0003 H       1  LIG1        0.1232
     27 O          -5.2095    4.9322   -0.0004 O.3     1  LIG1       -0.4929
     28 C          -3.7804    4.8809   -0.0005 C.3     1  LIG1        0.0789
     29 H          -3.3877    5.8763   -0.0007 H       1  LIG1        0.0660
     30 H          -3.4420    4.3642    0.8733 H       1  LIG1        0.0660
     31 H          -3.4421    4.3639   -0.8740 H       1  LIG1        0.0660
     32 C          -9.2948    4.2833   -0.0001 C.ar    1  LIG1        0.1233
     33 C          -7.9061    4.5092   -0.0003 C.ar    1  LIG1        0.0413
     34 C          -7.4450    5.8270   -0.0001 C.ar    1  LIG1       -0.0058
     35 C          -8.3780    6.8653    0.0002 C.ar    1  LIG1        0.1475
     36 C          -9.7465    6.5385    0.0002 C.ar    1  LIG1        0.1158
     37 N         -10.2087    5.2730    0.0002 N.ar    1  LIG1       -0.2340
     38 H          -6.3672    6.0425   -0.0012 H       1  LIG1        0.0662
     39 C          -9.7724    3.0742   -0.0002 C.1     1  LIG1       -0.0491
     40 C         -10.2137    1.9570   -0.0002 C.1     1  LIG1       -0.1124
     41 H         -10.6069    0.9619   -0.0003 H       1  LIG1        0.1232
     42 O          -7.9993    8.1090    0.0002 O.3     1  LIG1       -0.4859
     43 C          -6.5708    8.1730    0.0001 C.3     1  LIG1       -0.0268
     44 H          -6.2596    9.1967   -0.0000 H       1  LIG1        0.0265
     45 H          -6.1918    7.6852    0.8739 H       1  LIG1        0.0265
     46 H          -6.1919    7.6849   -0.8734 H       1  LIG1        0.0265
     47 C         -10.2792    8.8264    0.0008 C.ar    1  LIG1        0.0625
     48 C         -10.6531    7.4702    0.0005 C.ar    1  LIG1        0.0294
     49 C         -12.0128    7.1535    0.0008 C.ar    1  LIG1       -0.0074
     50 C         -12.9448    8.1927    0.0012 C.ar    1  LIG1        0.1387
     51 C         -12.4727    9.5181    0.0013 C.ar    1  LIG1        0.0695
     52 N         -11.1648    9.8416    0.0012 N.ar    1  LIG1       -0.2549
     53 H         -12.3431    6.1051   -0.0005 H       1  LIG1        0.0662
     54 H         -13.3014   10.5197    0.0018 H       1  LIG1        0.0867
     55 C          -9.0257    9.1713    0.0006 C.3     1  LIG1        0.0808
     56 C          -7.8676    9.4899    0.0005 C.3     1  LIG1        0.1105
     57 H          -6.8359    9.7737    0.0003 H       1  LIG1        0.0740
     58 O         -14.2220    7.9501    0.0013 O.3     1  LIG1       -0.4936
     59 C         -14.9425    9.1853    0.0013 C.3     1  LIG1        0.0789
     60 H         -15.9936    8.9851    0.0012 H       1  LIG1        0.0660
     61 H         -14.6866    9.7475    0.8750 H       1  LIG1        0.0660
     62 H         -14.6865    9.7475   -0.8723 H       1  LIG1        0.0660
@<TRIPOS>BOND
     1    31    28    1
     2    16    13    1
     3    46    43    1
     4    62    59    1
     5    23    19    1
     6    38    34    1
     7     7     3    1
     8    14    13    1
     9    29    28    1
    10    53    49    1
    11    28    27    1
    12    28    30    1
    13    13    12    1
    14    13    15    1
    15    18     5    1
    16    18    17   ar
    17    18    19   ar
    18    21    22   ar
    19    21    33    1
    20    21    20   ar
    21    27    20    1
    22    41    40    1
    23    12     4    1
    24     5     6   ar
    25     5     4   ar
    26    17    24    1
    27    17    22   ar
    28    19    20   ar
    29    24    25    3
    30    25    26    1
    31    33    32   ar
    32    33    34   ar
    33    40    39    3
    34    39    32    1
    35     6     1   ar
    36     4     3   ar
    37    32    37   ar
    38    34    35   ar
    39    44    43    1
    40     1     2   ar
    41     1     9    1
    42     2     3   ar
    43     2     8    1
    44    43    56    1
    45    43    45    1
    46    37    36   ar
    47    36    35   ar
    48    36    48    1
    49    35    42    1
    50    42    56    1
    51     9    10    3
    52    10    11    1
    53    57    56    1
    54    48    49   ar
    55    48    47   ar
    56    56    55    1
    57    55    47    1
    58    49    50   ar
    59    47    52   ar
    60    50    51   ar
    61    50    58    1
    62    52    51   ar
    63    60    59    1
    64    59    58    1
    65    59    61    1
    66    51    54    1
