@<TRIPOS>MOLECULE
mol_data/noopt/geoms/mol2/6el6el.out
 32 33 0 0 0
SMALL
GASTEIGER

@<TRIPOS>ATOM
      1 C          -4.5775   -2.0270    0.0001 C.ar    1  LIG1        0.1141
      2 C          -3.1706   -2.0270    0.0001 C.ar    1  LIG1       -0.0243
      3 C          -2.5039   -0.8004    0.0001 C.ar    1  LIG1       -0.0152
      4 C          -3.2580    0.3743   -0.0001 C.ar    1  LIG1        0.1461
      5 C          -4.6612    0.2715   -0.0003 C.ar    1  LIG1        0.1166
      6 N          -5.3207   -0.9034   -0.0001 N.ar    1  LIG1       -0.2347
      7 H          -1.4054   -0.7607   -0.0009 H       1  LIG1        0.0656
      8 H          -2.5135   -3.1487    0.0004 H       1  LIG1        0.0646
      9 C          -5.2431   -3.1437    0.0002 C.1     1  LIG1       -0.0498
     10 C          -5.8581   -4.1755    0.0003 C.1     1  LIG1       -0.1124
     11 H          -6.4059   -5.0946    0.0004 H       1  LIG1        0.1232
     12 O          -2.6846    1.5410   -0.0003 O.3     1  LIG1       -0.4930
     13 C          -1.2643    1.3748   -0.0004 C.3     1  LIG1        0.0789
     14 H          -0.7927    2.3353   -0.0008 H       1  LIG1        0.0660
     15 H          -0.9685    0.8326    0.8734 H       1  LIG1        0.0660
     16 H          -0.9687    0.8321   -0.8739 H       1  LIG1        0.0660
     17 C          -6.8088    1.2233   -0.0003 C.ar    1  LIG1        0.1226
     18 C          -5.4065    1.3366   -0.0004 C.ar    1  LIG1        0.0412
     19 C          -4.8408    2.6129   -0.0003 C.ar    1  LIG1       -0.0065
     20 C          -5.6871    3.7231   -0.0003 C.ar    1  LIG1        0.1388
     21 C          -7.0774    3.5076   -0.0004 C.ar    1  LIG1        0.0706
     22 N          -7.6401    2.2834   -0.0003 N.ar    1  LIG1       -0.2424
     23 H          -3.7491    2.7410   -0.0014 H       1  LIG1        0.0662
     24 H          -7.9061    4.5092   -0.0003 H       1  LIG1        0.0867
     25 C          -7.3823    0.0566   -0.0003 C.1     1  LIG1       -0.0491
     26 C          -7.9122   -1.0214   -0.0003 C.1     1  LIG1       -0.1124
     27 H          -8.3842   -1.9816   -0.0003 H       1  LIG1        0.1232
     28 O          -5.2095    4.9322   -0.0004 O.3     1  LIG1       -0.4936
     29 C          -3.7804    4.8809   -0.0005 C.3     1  LIG1        0.0789
     30 H          -3.3877    5.8763   -0.0007 H       1  LIG1        0.0660
     31 H          -3.4420    4.3642    0.8733 H       1  LIG1        0.0660
     32 H          -3.4421    4.3639   -0.8740 H       1  LIG1        0.0660
@<TRIPOS>BOND
     1    32    29    1
     2    16    13    1
     3    23    19    1
     4     7     3    1
     5    14    13    1
     6    30    29    1
     7    29    28    1
     8    29    31    1
     9    13    12    1
    10    13    15    1
    11    18     5    1
    12    18    17   ar
    13    18    19   ar
    14    21    22   ar
    15    21    24    1
    16    21    20   ar
    17    28    20    1
    18     5     4   ar
    19     5     6   ar
    20    12     4    1
    21    17    25    1
    22    17    22   ar
    23    19    20   ar
    24    25    26    3
    25    26    27    1
    26     4     3   ar
    27     6     1   ar
    28     2     3   ar
    29     2     1   ar
    30     2     8    1
    31     1     9    1
    32     9    10    3
    33    10    11    1
