@<TRIPOS>MOLECULE
mol_data/noopt/geoms/mol2/6el6el6el.out
 47 49 0 0 0
SMALL
GASTEIGER

@<TRIPOS>ATOM
      1 C          -4.5775   -2.0270    0.0001 C.ar    1  LIG1        0.1141
      2 C          -3.1706   -2.0270    0.0001 C.ar    1  LIG1       -0.0243
      3 C          -2.5039   -0.8004    0.0001 C.ar    1  LIG1       -0.0152
      4 C          -3.2580    0.3743   -0.0001 C.ar    1  LIG1        0.1461
      5 C          -4.6612    0.2715   -0.0003 C.ar    1  LIG1        0.1166
      6 N          -5.3207   -0.9034   -0.0001 N.ar    1  LIG1       -0.2347
      7 H          -1.4054   -0.7607   -0.0009 H       1  LIG1        0.0656
      8 H          -2.5135   -3.1487    0.0004 H       1  LIG1        0.0646
      9 C          -5.2431   -3.1437    0.0002 C.1     1  LIG1       -0.0498
     10 C          -5.8581   -4.1755    0.0003 C.1     1  LIG1       -0.1124
     11 H          -6.4059   -5.0946    0.0004 H       1  LIG1        0.1232
     12 O          -2.6846    1.5410   -0.0003 O.3     1  LIG1       -0.4930
     13 C          -1.2643    1.3748   -0.0004 C.3     1  LIG1        0.0789
     14 H          -0.7927    2.3353   -0.0008 H       1  LIG1        0.0660
     15 H          -0.9685    0.8326    0.8734 H       1  LIG1        0.0660
     16 H          -0.9687    0.8321   -0.8739 H       1  LIG1        0.0660
     17 C          -6.8088    1.2233   -0.0003 C.ar    1  LIG1        0.1233
     18 C          -5.4065    1.3366   -0.0004 C.ar    1  LIG1        0.0413
     19 C          -4.8408    2.6129   -0.0003 C.ar    1  LIG1       -0.0059
     20 C          -5.6871    3.7231   -0.0003 C.ar    1  LIG1        0.1467
     21 C          -7.0774    3.5076   -0.0004 C.ar    1  LIG1        0.1167
     22 N          -7.6401    2.2834   -0.0003 N.ar    1  LIG1       -0.2340
     23 H          -3.7491    2.7410   -0.0014 H       1  LIG1        0.0662
     24 C          -7.3823    0.0566   -0.0003 C.1     1  LIG1       -0.0491
     25 C          -7.9122   -1.0214   -0.0003 C.1     1  LIG1       -0.1124
     26 H          -8.3842   -1.9816   -0.0003 H       1  LIG1        0.1232
     27 O          -5.2095    4.9322   -0.0004 O.3     1  LIG1       -0.4929
     28 C          -3.7804    4.8809   -0.0005 C.3     1  LIG1        0.0789
     29 H          -3.3877    5.8763   -0.0007 H       1  LIG1        0.0660
     30 H          -3.4420    4.3642    0.8733 H       1  LIG1        0.0660
     31 H          -3.4421    4.3639   -0.8740 H       1  LIG1        0.0660
     32 C          -9.2948    4.2833   -0.0001 C.ar    1  LIG1        0.1226
     33 C          -7.9061    4.5092   -0.0003 C.ar    1  LIG1        0.0412
     34 C          -7.4450    5.8270   -0.0001 C.ar    1  LIG1       -0.0065
     35 C          -8.3780    6.8653    0.0002 C.ar    1  LIG1        0.1388
     36 C          -9.7465    6.5385    0.0002 C.ar    1  LIG1        0.0706
     37 N         -10.2087    5.2730    0.0002 N.ar    1  LIG1       -0.2424
     38 H          -6.3672    6.0425   -0.0012 H       1  LIG1        0.0662
     39 H         -10.6531    7.4701    0.0005 H       1  LIG1        0.0867
     40 C          -9.7724    3.0742   -0.0002 C.1     1  LIG1       -0.0491
     41 C         -10.2137    1.9570   -0.0002 C.1     1  LIG1       -0.1124
     42 H         -10.6069    0.9619   -0.0003 H       1  LIG1        0.1232
     43 O          -7.9993    8.1090    0.0002 O.3     1  LIG1       -0.4936
     44 C          -6.5708    8.1730    0.0001 C.3     1  LIG1        0.0789
     45 H          -6.2596    9.1967   -0.0000 H       1  LIG1        0.0660
     46 H          -6.1918    7.6852    0.8739 H       1  LIG1        0.0660
     47 H          -6.1919    7.6849   -0.8734 H       1  LIG1        0.0660
@<TRIPOS>BOND
     1    31    28    1
     2    16    13    1
     3    47    44    1
     4    23    19    1
     5    38    34    1
     6     7     3    1
     7    14    13    1
     8    29    28    1
     9    28    27    1
    10    28    30    1
    11    13    12    1
    12    13    15    1
    13    18     5    1
    14    18    17   ar
    15    18    19   ar
    16    21    22   ar
    17    21    33    1
    18    21    20   ar
    19    27    20    1
    20    42    41    1
    21    12     4    1
    22     5     4   ar
    23     5     6   ar
    24    17    24    1
    25    17    22   ar
    26    19    20   ar
    27    24    25    3
    28    25    26    1
    29    33    32   ar
    30    33    34   ar
    31    41    40    3
    32    40    32    1
    33     4     3   ar
    34     6     1   ar
    35    32    37   ar
    36    34    35   ar
    37    45    44    1
    38     1     2   ar
    39     1     9    1
    40     2     3   ar
    41     2     8    1
    42    44    43    1
    43    44    46    1
    44    37    36   ar
    45    36    35   ar
    46    36    39    1
    47    35    43    1
    48     9    10    3
    49    10    11    1
