@<TRIPOS>MOLECULE
mol_data/noopt/geoms/mol2/6el6eh6ea-13fh4ff4ii-12de6fa.out
 100 106 0 0 0
SMALL
GASTEIGER

@<TRIPOS>ATOM
      1 C          -4.5775   -2.0270    0.0001 C.ar    1  LIG1        0.1141
      2 C          -3.1706   -2.0270    0.0001 C.ar    1  LIG1       -0.0243
      3 C          -2.5039   -0.8004    0.0001 C.ar    1  LIG1       -0.0152
      4 C          -3.2580    0.3743   -0.0001 C.ar    1  LIG1        0.1461
      5 C          -4.6612    0.2715   -0.0003 C.ar    1  LIG1        0.1166
      6 N          -5.3207   -0.9034   -0.0001 N.ar    1  LIG1       -0.2347
      7 H          -1.4054   -0.7607   -0.0009 H       1  LIG1        0.0656
      8 H          -2.5135   -3.1487    0.0004 H       1  LIG1        0.0646
      9 C          -5.2431   -3.1437    0.0002 C.1     1  LIG1       -0.0498
     10 C          -5.8581   -4.1755    0.0003 C.1     1  LIG1       -0.1124
     11 H          -6.4059   -5.0946    0.0004 H       1  LIG1        0.1232
     12 O          -2.6846    1.5410   -0.0003 O.3     1  LIG1       -0.4930
     13 C          -1.2643    1.3748   -0.0004 C.3     1  LIG1        0.0789
     14 H          -0.7927    2.3353   -0.0008 H       1  LIG1        0.0660
     15 H          -0.9685    0.8326    0.8734 H       1  LIG1        0.0660
     16 H          -0.9687    0.8321   -0.8739 H       1  LIG1        0.0660
     17 C          -6.8088    1.2233   -0.0003 C.ar    1  LIG1        0.1232
     18 C          -5.4065    1.3366   -0.0004 C.ar    1  LIG1        0.0396
     19 C          -4.8408    2.6129   -0.0003 C.ar    1  LIG1       -0.0270
     20 C          -5.6871    3.7231   -0.0003 C.ar    1  LIG1        0.0517
     21 C          -7.0774    3.5076   -0.0004 C.ar    1  LIG1        0.0956
     22 N          -7.6401    2.2834   -0.0003 N.ar    1  LIG1       -0.2358
     23 H          -3.7491    2.7410   -0.0014 H       1  LIG1        0.0644
     24 C          -7.3823    0.0566   -0.0003 C.1     1  LIG1       -0.0491
     25 C          -7.9122   -1.0214   -0.0003 C.1     1  LIG1       -0.1124
     26 H          -8.3842   -1.9816   -0.0003 H       1  LIG1        0.1232
     27 N          -5.2095    4.9322   -0.0004 N.pl3   1  LIG1       -0.3563
     28 H          -4.3276    4.9422   -0.4718 H       1  LIG1        0.1424
     29 H          -5.8464    5.5421   -0.4718 H       1  LIG1        0.1424
     30 C          -9.2946    4.2834   -0.0212 C.ar    1  LIG1        0.1231
     31 C          -7.9061    4.5092   -0.0003 C.ar    1  LIG1        0.0360
     32 C          -7.4452    5.8268    0.0208 C.ar    1  LIG1       -0.0478
     33 C          -8.3781    6.8652    0.0200 C.ar    1  LIG1       -0.0334
     34 C          -9.7464    6.5385   -0.0020 C.ar    1  LIG1        0.0922
     35 N         -10.2086    5.2731   -0.0223 N.ar    1  LIG1       -0.2362
     36 H          -6.3674    6.0423    0.0365 H       1  LIG1        0.0626
     37 C          -9.7721    3.0745   -0.0412 C.1     1  LIG1       -0.0491
     38 C         -10.2133    1.9574   -0.0596 C.1     1  LIG1       -0.1124
     39 H         -10.6064    0.9623   -0.0760 H       1  LIG1        0.1232
     40 H          -7.9996    8.1087    0.0389 H       1  LIG1        0.0640
     41 C         -10.6531    7.4702   -0.0035 C.ar    1  LIG1        0.1093
     42 C         -10.5269    8.8237   -0.0049 C.ar    1  LIG1        0.1650
     43 C         -11.8479    9.3764   -0.0052 C.ar    1  LIG1        0.0931
     44 C         -12.7233    8.3364   -0.0057 C.ar    1  LIG1        0.0752
     45 N         -11.9961    7.1675   -0.0042 N.ar    1  LIG1       -0.3484
     46 H         -12.3797    6.2505   -0.0043 H       1  LIG1        0.1661
     47 O          -9.4106    9.4901   -0.0045 O.3     1  LIG1       -0.5030
     48 H          -9.5994   10.4313   -0.0044 H       1  LIG1        0.2923
     49 N         -12.1571   10.6392   -0.0054 N.pl3   1  LIG1       -0.3535
     50 H         -11.4432   11.1570   -0.4768 H       1  LIG1        0.1425
     51 H         -13.0293   10.7687   -0.4768 H       1  LIG1        0.1425
     52 C         -14.7336    9.5458   -0.0057 C.ar    1  LIG1        0.1268
     53 C         -16.1405    9.4831   -0.0047 C.ar    1  LIG1       -0.0083
     54 C         -14.0232    8.3280   -0.0062 C.ar    1  LIG1        0.0451
     55 C         -16.8125    8.2629   -0.0049 C.ar    1  LIG1        0.0273
     56 H         -16.7082   10.4110   -0.0042 H       1  LIG1        0.0661
     57 C         -14.6936    7.1095   -0.0063 C.ar    1  LIG1       -0.0069
     58 C         -16.0918    7.0680   -0.0058 C.ar    1  LIG1        0.1254
     59 H         -14.1234    6.1841   -0.0066 H       1  LIG1        0.0662
     60 O         -14.1633   10.7141   -0.0058 O.3     1  LIG1       -0.5061
     61 H         -14.8360   11.3990   -0.0058 H       1  LIG1        0.2922
     62 O         -16.7130    5.9260   -0.0057 O.3     1  LIG1       -0.5061
     63 H         -16.0712    5.2121   -0.0057 H       1  LIG1        0.2922
     64 C         -18.8344    9.4526    0.0184 C.ar    1  LIG1       -0.0420
     65 C         -20.2406    9.3762    0.0199 C.ar    1  LIG1       -0.0502
     66 C         -18.1123    8.2419   -0.0041 C.ar    1  LIG1       -0.0111
     67 C         -20.9008    8.1497   -0.0008 C.ar    1  LIG1       -0.0128
     68 H         -20.8173   10.2983    0.0373 H       1  LIG1        0.0627
     69 C         -18.7708    7.0171   -0.0247 C.ar    1  LIG1       -0.0502
     70 C         -20.1685    6.9620   -0.0233 C.ar    1  LIG1       -0.0421
     71 H         -18.1916    6.0974   -0.0418 H       1  LIG1        0.0627
     72 C         -18.2753   10.6264    0.0381 C.3     1  LIG1       -0.0391
     73 H         -18.9140   11.3172    0.5478 H       1  LIG1        0.0278
     74 H         -18.1155   10.9622   -0.9653 H       1  LIG1        0.0278
     75 H         -17.3365   10.5658    0.5478 H       1  LIG1        0.0278
     76 C         -20.7788    5.8140   -0.0426 C.3     1  LIG1       -0.0391
     77 H         -20.1783    5.0824    0.4566 H       1  LIG1        0.0278
     78 H         -20.9392    5.5122   -1.0566 H       1  LIG1        0.0278
     79 H         -21.7211    5.9027    0.4565 H       1  LIG1        0.0278
     80 C         -22.2003    8.1160    0.0011 C.2     1  LIG1        0.0100
     81 C         -23.2084    9.0576    0.0173 C.2     1  LIG1        0.0791
     82 C         -24.4586    8.3270    0.0084 C.2     1  LIG1        0.0899
     83 C         -24.1314    6.9868   -0.0127 C.2     1  LIG1        0.2077
     84 O         -22.7448    6.8312   -0.0177 O.2     1  LIG1       -0.2858
     85 N         -22.9819   11.4934    0.0542 N.1     1  LIG1       -0.1908
     86 C         -23.0880   10.3519    0.0369 C.1     1  LIG1        0.1011
     87 C         -25.6458    8.8567    0.0187 C.1     1  LIG1       -0.0645
     88 C         -26.7427    9.3461    0.0281 C.1     1  LIG1       -0.1138
     89 H         -27.7198    9.7821    0.0366 H       1  LIG1        0.1232
     90 C         -24.1203    4.6378   -0.0370 C.ar    1  LIG1        0.2234
     91 C         -24.7979    5.8708   -0.0285 C.ar    1  LIG1        0.0842
     92 C         -26.1939    5.8643   -0.0371 C.ar    1  LIG1       -0.0443
     93 C         -26.8602    4.6377   -0.0539 C.ar    1  LIG1       -0.0427
     94 C         -26.0942    3.4576   -0.0615 C.ar    1  LIG1        0.0314
     95 N         -24.7470    3.4454   -0.0532 N.ar    1  LIG1       -0.2208
     96 H         -26.7578    6.8079   -0.0319 H       1  LIG1        0.0627
     97 H         -26.6686    2.2915   -0.0771 H       1  LIG1        0.0831
     98 O         -22.8210    4.5923   -0.0294 O.3     1  LIG1       -0.4919
     99 H         -22.4692    5.4855   -0.0276 H       1  LIG1        0.2937
    100 H         -28.1588    4.5784   -0.0627 H       1  LIG1        0.0633
@<TRIPOS>BOND
     1    78    76    1
     2    74    72    1
     3    16    13    1
     4    51    49    1
     5    50    49    1
     6    29    27    1
     7    28    27    1
     8    97    94    1
     9    39    38    1
    10   100    93    1
    11    94    93   ar
    12    94    95   ar
    13    38    37    3
    14    93    92   ar
    15    95    90   ar
    16    76    70    1
    17    76    79    1
    18    76    77    1
    19    71    69    1
    20    37    30    1
    21    92    96    1
    22    92    91   ar
    23    90    98    1
    24    90    91   ar
    25    98    99    1
    26    91    83    1
    27    69    70   ar
    28    69    66   ar
    29    70    67   ar
    30    35    30   ar
    31    35    34   ar
    32    30    31   ar
    33    84    83    1
    34    83    82    2
    35    59    57    1
    36    57    54   ar
    37    57    58   ar
    38    54    52   ar
    39    54    44    1
    40    61    60    1
    41    60    52    1
    42    58    62    1
    43    58    55   ar
    44    62    63    1
    45    52    53   ar
    46    44    43   ar
    47    44    45   ar
    48    49    43    1
    49    43    42   ar
    50    42    47    1
    51    42    41   ar
    52    55    53   ar
    53    55    66    1
    54    53    56    1
    55    47    48    1
    56    46    45    1
    57    45    41   ar
    58    66    64   ar
    59    41    34    1
    60    34    33   ar
    61    23    19    1
    62     7     3    1
    63    67    80    1
    64    67    65   ar
    65    14    13    1
    66    13    12    1
    67    13    15    1
    68    18     5    1
    69    18    17   ar
    70    18    19   ar
    71    21    22   ar
    72    21    31    1
    73    21    20   ar
    74    27    20    1
    75    12     4    1
    76     5     6   ar
    77     5     4   ar
    78    17    24    1
    79    17    22   ar
    80    19    20   ar
    81    24    25    3
    82    25    26    1
    83    31    32   ar
    84     6     1   ar
    85     4     3   ar
    86     2     3   ar
    87     2     1   ar
    88     2     8    1
    89     1     9    1
    90     9    10    3
    91    10    11    1
    92    80    81    2
    93    82    81    1
    94    82    87    1
    95    81    86    1
    96    64    65   ar
    97    64    72    1
    98    87    88    3
    99    65    68    1
   100    33    32   ar
   101    33    40    1
   102    32    36    1
   103    88    89    1
   104    86    85    3
   105    72    75    1
   106    72    73    1
