@<TRIPOS>MOLECULE
mol_data/noopt/geoms/mol2/6el6fi4dh12if.out
 54 57 0 0 0
SMALL
GASTEIGER

@<TRIPOS>ATOM
      1 C          -4.5775   -2.0270    0.0001 C.ar    1  LIG1        0.1141
      2 C          -3.1706   -2.0270    0.0001 C.ar    1  LIG1       -0.0243
      3 C          -2.5039   -0.8004    0.0001 C.ar    1  LIG1       -0.0152
      4 C          -3.2580    0.3743   -0.0001 C.ar    1  LIG1        0.1462
      5 C          -4.6612    0.2715   -0.0003 C.ar    1  LIG1        0.1189
      6 N          -5.3207   -0.9034   -0.0001 N.ar    1  LIG1       -0.2346
      7 H          -1.4054   -0.7607   -0.0009 H       1  LIG1        0.0656
      8 H          -2.5135   -3.1487    0.0004 H       1  LIG1        0.0646
      9 C          -5.2431   -3.1437    0.0002 C.1     1  LIG1       -0.0498
     10 C          -5.8581   -4.1755    0.0003 C.1     1  LIG1       -0.1124
     11 H          -6.4059   -5.0946    0.0004 H       1  LIG1        0.1232
     12 O          -2.6846    1.5410   -0.0003 O.3     1  LIG1       -0.4930
     13 C          -1.2643    1.3748   -0.0004 C.3     1  LIG1        0.0789
     14 H          -0.7927    2.3353   -0.0008 H       1  LIG1        0.0660
     15 H          -0.9685    0.8326    0.8734 H       1  LIG1        0.0660
     16 H          -0.9687    0.8321   -0.8739 H       1  LIG1        0.0660
     17 C          -6.8088    1.2233   -0.0003 C.ar    1  LIG1        0.2224
     18 C          -5.4065    1.3366   -0.0004 C.ar    1  LIG1        0.0656
     19 C          -4.8408    2.6129   -0.0003 C.ar    1  LIG1       -0.0421
     20 C          -5.6871    3.7231   -0.0003 C.ar    1  LIG1       -0.0202
     21 C          -7.0774    3.5076   -0.0004 C.ar    1  LIG1        0.0787
     22 N          -7.6401    2.2834   -0.0003 N.ar    1  LIG1       -0.2122
     23 H          -3.7491    2.7410   -0.0014 H       1  LIG1        0.0629
     24 O          -7.3823    0.0566   -0.0003 O.3     1  LIG1       -0.4919
     25 H          -6.7115   -0.6302   -0.0003 H       1  LIG1        0.2937
     26 C          -5.2094    4.9325   -0.0004 C.3     1  LIG1       -0.0216
     27 H          -5.8909    5.5852    0.5040 H       1  LIG1        0.0854
     28 H          -5.0784    5.2642   -1.0092 H       1  LIG1        0.0317
     29 H          -4.2658    4.9433    0.5040 H       1  LIG1        0.0317
     30 C          -7.4120    5.8297    0.0005 C.ar    1  LIG1        0.0048
     31 C          -8.3504    6.8798    0.0022 C.ar    1  LIG1       -0.0400
     32 C          -7.9061    4.5092   -0.0003 C.ar    1  LIG1        0.0111
     33 C          -9.7206    6.6285    0.0023 C.ar    1  LIG1        0.0389
     34 H          -7.9907    7.9063    0.0030 H       1  LIG1        0.0632
     35 C          -9.2739    4.2578   -0.0001 C.ar    1  LIG1       -0.0305
     36 C         -10.1903    5.3146    0.0011 C.ar    1  LIG1        0.0360
     37 H          -9.6300    3.2308   -0.0006 H       1  LIG1        0.0643
     38 N          -5.0302    6.3889   -0.0002 N.2     1  LIG1       -0.1571
     39 C          -6.1464    6.1268    0.0002 C.2     1  LIG1        0.0577
     40 N         -11.4678    5.0735    0.0014 N.pl3   1  LIG1       -0.3574
     41 H         -11.9468    5.8140   -0.4699 H       1  LIG1        0.1423
     42 H         -11.6441    4.2094   -0.4699 H       1  LIG1        0.1423
     43 C         -10.5590    7.6221    0.0037 C.ar    1  LIG1        0.1431
     44 C         -10.4538    8.9976    0.0048 C.ar    1  LIG1        0.0368
     45 C         -11.8055    9.5170    0.0062 C.ar    1  LIG1        0.1580
     46 C         -12.6474    8.4239    0.0057 C.ar    1  LIG1        0.1341
     47 O         -11.9024    7.2442    0.0042 O.2     1  LIG1       -0.4589
     48 H         -13.9353    8.2467    0.0065 H       1  LIG1        0.1068
     49 C          -9.3677    9.7127    0.0047 C.3     1  LIG1       -0.0326
     50 H          -9.5503   10.6385    0.5091 H       1  LIG1        0.0280
     51 H          -9.0699    9.9089   -1.0041 H       1  LIG1        0.0280
     52 H          -8.5894    9.1791    0.5091 H       1  LIG1        0.0280
     53 O         -12.1338   10.7749    0.0074 O.3     1  LIG1       -0.5034
     54 H         -13.0903   10.8564    0.0077 H       1  LIG1        0.2923
@<TRIPOS>BOND
     1    28    26    1
     2    51    49    1
     3    16    13    1
     4    42    40    1
     5    41    40    1
     6    23    19    1
     7     7     3    1
     8    14    13    1
     9    37    35    1
    10    13    12    1
    11    13    15    1
    12    18     5    1
    13    18    17   ar
    14    18    19   ar
    15    21    22   ar
    16    21    32    1
    17    21    20   ar
    18    26    20    1
    19    26    29    1
    20    12     4    1
    21     5     6   ar
    22     5     4   ar
    23    17    24    1
    24    17    22   ar
    25    19    20   ar
    26    24    25    1
    27    32    35   ar
    28    32    30   ar
    29    38    39    2
    30     6     1   ar
    31     4     3   ar
    32    35    36   ar
    33     1     2   ar
    34     1     9    1
    35     2     3   ar
    36     2     8    1
    37    39    30    1
    38    39    27    1
    39     9    10    3
    40    10    11    1
    41    30    31   ar
    42    36    40    1
    43    36    33   ar
    44    31    33   ar
    45    31    34    1
    46    33    43    1
    47    43    47   ar
    48    43    44   ar
    49    47    46   ar
    50    49    44    1
    51    49    52    1
    52    49    50    1
    53    44    45   ar
    54    46    45   ar
    55    46    48    1
    56    45    53    1
    57    53    54    1
