@<TRIPOS>MOLECULE
mol_data/noopt/geoms/mol2/6fa12fe-13ef4fi-13el4fe13fe6il-.out
 101 108 0 0 0
SMALL
GASTEIGER

@<TRIPOS>ATOM
      1 C          -4.5775   -2.0270    0.0001 C.ar    1  LIG1        0.2129
      2 C          -3.1706   -2.0270    0.0001 C.ar    1  LIG1       -0.0001
      3 C          -2.5039   -0.8004    0.0001 C.ar    1  LIG1       -0.0546
      4 C          -3.2580    0.3743   -0.0001 C.ar    1  LIG1       -0.0323
      5 C          -4.6612    0.2715   -0.0003 C.ar    1  LIG1        0.1135
      6 N          -5.3207   -0.9034   -0.0001 N.ar    1  LIG1       -0.2098
      7 H          -1.4054   -0.7607   -0.0009 H       1  LIG1        0.0620
      8 H          -2.5135   -3.1487    0.0004 H       1  LIG1        0.0671
      9 O          -5.2431   -3.1437    0.0002 O.3     1  LIG1       -0.4924
     10 H          -4.6298   -3.8823    0.0002 H       1  LIG1        0.2937
     11 H          -2.6846    1.5410   -0.0003 H       1  LIG1        0.0640
     12 C          -5.4065    1.3366   -0.0004 C.ar    1  LIG1        0.1964
     13 C          -5.1777    2.6969    0.0143 C.ar    1  LIG1        0.1806
     14 C          -6.4770    3.3362    0.0035 C.ar    1  LIG1        0.1140
     15 C          -7.4140    2.3237   -0.0171 C.ar    1  LIG1        0.1722
     16 O          -6.7784    1.0815   -0.0201 O.2     1  LIG1       -0.4467
     17 O          -4.0320    3.3109    0.0342 O.3     1  LIG1       -0.5023
     18 H          -4.1771    4.2599    0.0391 H       1  LIG1        0.2923
     19 C          -6.6906    4.6185    0.0120 C.1     1  LIG1       -0.0621
     20 C          -6.8879    5.8034    0.0199 C.1     1  LIG1       -0.1137
     21 H          -7.0636    6.8588    0.0268 H       1  LIG1        0.1232
     22 C          -8.7125    2.2634   -0.0340 C.ar    1  LIG1        0.1031
     23 C          -9.6415    3.2558   -0.0292 C.ar    1  LIG1        0.0949
     24 C         -10.9314    2.6342   -0.0540 C.ar    1  LIG1        0.1582
     25 C         -10.7338    1.2894   -0.0746 C.ar    1  LIG1        0.0938
     26 N          -9.3767    1.0580   -0.0620 N.ar    1  LIG1       -0.3477
     27 H          -8.9451    0.1627   -0.0722 H       1  LIG1        0.1661
     28 C          -9.3997    4.5329   -0.0049 C.1     1  LIG1       -0.0637
     29 C          -9.1763    5.7129    0.0176 C.1     1  LIG1       -0.1137
     30 H          -8.9773    6.7641    0.0375 H       1  LIG1        0.1232
     31 O         -12.0813    3.2407   -0.0568 O.3     1  LIG1       -0.5035
     32 H         -12.7868    2.5897   -0.0575 H       1  LIG1        0.2923
     33 C         -12.9723    0.5875   -0.0928 C.ar    1  LIG1        0.1267
     34 C         -13.8586   -0.5066   -0.1206 C.ar    1  LIG1       -0.0101
     35 C         -11.5897    0.3114   -0.1008 C.ar    1  LIG1        0.0436
     36 C         -13.3911   -1.8184   -0.1553 C.ar    1  LIG1        0.0060
     37 H         -14.9295   -0.3161   -0.1148 H       1  LIG1        0.0661
     38 C         -11.1226   -0.9981   -0.1355 C.ar    1  LIG1       -0.0455
     39 C         -12.0189   -2.0715   -0.1631 C.ar    1  LIG1       -0.0405
     40 H         -10.0518   -1.1850   -0.1408 H       1  LIG1        0.0628
     41 O         -13.4683    1.7888   -0.0612 O.3     1  LIG1       -0.5061
     42 H         -14.4270    1.7395   -0.0534 H       1  LIG1        0.2922
     43 C         -11.5762   -3.2938   -0.1953 C.3     1  LIG1       -0.0391
     44 H         -10.6291   -3.3433    0.3001 H       1  LIG1        0.0278
     45 H         -11.4633   -3.6055   -1.2127 H       1  LIG1        0.0278
     46 H         -12.2721   -3.9382    0.3000 H       1  LIG1        0.0278
     47 C         -14.2376   -2.8048   -0.1804 C.ar    1  LIG1        0.0665
     48 C         -15.5969   -2.8003   -0.1978 C.ar    1  LIG1        0.0921
     49 C         -16.0288   -4.1654   -0.2220 C.ar    1  LIG1        0.1613
     50 C         -14.9145   -4.9440   -0.2200 C.ar    1  LIG1        0.0940
     51 N         -13.8156   -4.1151   -0.1942 N.ar    1  LIG1       -0.3501
     52 H         -12.8680   -4.4151   -0.1872 H       1  LIG1        0.1660
     53 C         -16.3606   -1.7483   -0.1919 C.1     1  LIG1       -0.0638
     54 C         -17.0663   -0.7763   -0.1865 C.1     1  LIG1       -0.1137
     55 H         -17.6950    0.0896   -0.1816 H       1  LIG1        0.1232
     56 O         -17.2587   -4.5863   -0.2425 O.3     1  LIG1       -0.4917
     57 C         -18.1467   -3.4655   -0.2501 C.3     1  LIG1        0.0789
     58 H         -19.1588   -3.8124   -0.2671 H       1  LIG1        0.0660
     59 H         -17.9861   -2.8772    0.6292 H       1  LIG1        0.0660
     60 H         -17.9598   -2.8682   -1.1179 H       1  LIG1        0.0660
     61 C         -15.9387   -7.0545   -0.2452 C.ar    1  LIG1        0.1268
     62 C         -15.7500   -8.4500   -0.2619 C.ar    1  LIG1       -0.0091
     63 C         -14.7895   -6.2378   -0.2369 C.ar    1  LIG1        0.0445
     64 C         -14.4744   -9.0098   -0.2706 C.ar    1  LIG1        0.0208
     65 H         -16.6232   -9.0987   -0.2684 H       1  LIG1        0.0661
     66 C         -13.5158   -6.7961   -0.2455 C.ar    1  LIG1       -0.0330
     67 C         -13.3490   -8.1848   -0.2625 C.ar    1  LIG1        0.0347
     68 H         -12.6453   -6.1452   -0.2387 H       1  LIG1        0.0638
     69 O         -17.1535   -6.5914   -0.2380 O.3     1  LIG1       -0.5061
     70 H         -17.7752   -7.3229   -0.2363 H       1  LIG1        0.2922
     71 C         -12.1559   -8.7010   -0.2704 C.1     1  LIG1       -0.0690
     72 C         -11.0535   -9.1780   -0.2777 C.1     1  LIG1       -0.1139
     73 H         -10.0715   -9.6029   -0.2841 H       1  LIG1        0.1232
     74 C         -14.3369  -10.3024   -0.2861 C.ar    1  LIG1        0.0915
     75 C         -15.2721  -11.2890   -0.2804 C.ar    1  LIG1        0.1580
     76 C         -14.5747  -12.5395   -0.3039 C.ar    1  LIG1        0.0919
     77 C         -13.2440  -12.2621   -0.3246 C.ar    1  LIG1        0.0680
     78 N         -13.0939  -10.8936   -0.3134 N.ar    1  LIG1       -0.3502
     79 H         -12.2260  -10.4094   -0.3240 H       1  LIG1        0.1660
     80 O         -16.5613  -11.1238   -0.2564 O.3     1  LIG1       -0.5035
     81 H         -16.9941  -11.9807   -0.2505 H       1  LIG1        0.2923
     82 C         -15.1114  -13.7235   -0.3056 C.1     1  LIG1       -0.0639
     83 C         -15.6074  -14.8175   -0.3071 C.1     1  LIG1       -0.1137
     84 H         -16.0492  -15.7921   -0.3085 H       1  LIG1        0.1232
     85 C         -10.9115  -12.5341   -0.3847 C.ar    1  LIG1        0.0476
     86 C         -12.2166  -13.0582   -0.3499 C.ar    1  LIG1        0.0241
     87 C         -12.3782  -14.4449   -0.3429 C.ar    1  LIG1       -0.0076
     88 C         -11.2411  -15.2541   -0.3709 C.ar    1  LIG1        0.1387
     89 C          -9.9777  -14.6359   -0.4050 C.ar    1  LIG1        0.0695
     90 N          -9.8035  -13.2999   -0.4120 N.ar    1  LIG1       -0.2559
     91 H         -13.3825  -14.8910   -0.3170 H       1  LIG1        0.0662
     92 H          -8.8896  -15.3467   -0.4319 H       1  LIG1        0.0867
     93 C         -10.7099  -11.2495   -0.3924 C.3     1  LIG1       -0.0217
     94 H         -11.5172  -10.7588    0.1099 H       1  LIG1        0.0293
     95 H         -10.6556  -10.9030   -1.4034 H       1  LIG1        0.0293
     96 H          -9.7910  -11.0297    0.1098 H       1  LIG1        0.0293
     97 O         -11.3385  -16.5505   -0.3660 O.3     1  LIG1       -0.4936
     98 C         -12.7185  -16.9254   -0.3642 C.3     1  LIG1        0.0789
     99 H         -12.7982  -17.9925   -0.3603 H       1  LIG1        0.0660
    100 H         -13.1947  -16.5290    0.5082 H       1  LIG1        0.0660
    101 H         -13.1952  -16.5354   -1.2391 H       1  LIG1        0.0660
@<TRIPOS>BOND
     1    95    93    1
     2   101    98    1
     3    45    43    1
     4    60    57    1
     5    92    89    1
     6    90    89   ar
     7    90    85   ar
     8    89    88   ar
     9    93    85    1
    10    93    96    1
    11    93    94    1
    12    85    86   ar
    13    88    97    1
    14    88    87   ar
    15    97    98    1
    16    98    99    1
    17    98   100    1
    18    86    87   ar
    19    86    77    1
    20    87    91    1
    21    77    78   ar
    22    77    76   ar
    23    79    78    1
    24    78    74   ar
    25    84    83    1
    26    83    82    3
    27    82    76    1
    28    76    75   ar
    29    74    75   ar
    30    74    64    1
    31    73    72    1
    32    75    80    1
    33    72    71    3
    34    64    67   ar
    35    64    62   ar
    36    71    67    1
    37    65    62    1
    38    58    57    1
    39    67    66   ar
    40    62    61   ar
    41    80    81    1
    42    57    56    1
    43    57    59    1
    44    66    68    1
    45    66    63   ar
    46    61    69    1
    47    61    63   ar
    48    56    49    1
    49    69    70    1
    50    63    50    1
    51    49    50   ar
    52    49    48   ar
    53    50    51   ar
    54    48    53    1
    55    48    47   ar
    56    43    39    1
    57    43    46    1
    58    43    44    1
    59    51    52    1
    60    51    47   ar
    61    53    54    3
    62    54    55    1
    63    47    36    1
    64    39    36   ar
    65    39    38   ar
    66    36    34   ar
    67    40    38    1
    68    38    35   ar
    69    34    37    1
    70    34    33   ar
    71    35    33   ar
    72    35    25    1
    73    33    41    1
    74    25    26   ar
    75    25    24   ar
    76    27    26    1
    77    26    22   ar
    78    41    42    1
    79    32    31    1
    80    31    24    1
    81    24    23   ar
    82    22    23   ar
    83    22    15    1
    84    23    28    1
    85    16    15   ar
    86    16    12   ar
    87    15    14   ar
    88    28    29    3
    89     7     3    1
    90    12     5    1
    91    12    13   ar
    92    11     4    1
    93     5     6   ar
    94     5     4   ar
    95     6     1   ar
    96     4     3   ar
    97     3     2   ar
    98     1     2   ar
    99     1     9    1
   100     2     8    1
   101     9    10    1
   102    14    19    1
   103    14    13   ar
   104    19    20    3
   105    13    17    1
   106    29    30    1
   107    20    21    1
   108    17    18    1
