@<TRIPOS>MOLECULE
mol_data/noopt/geoms/mol2/6fa4ef6fl-4fe-.out
 52 55 0 0 0
SMALL
GASTEIGER

@<TRIPOS>ATOM
      1 C          -4.5775   -2.0270    0.0001 C.ar    1  LIG1        0.2128
      2 C          -3.1706   -2.0270    0.0001 C.ar    1  LIG1       -0.0001
      3 C          -2.5039   -0.8004    0.0001 C.ar    1  LIG1       -0.0547
      4 C          -3.2580    0.3743   -0.0001 C.ar    1  LIG1       -0.0354
      5 C          -4.6612    0.2715   -0.0003 C.ar    1  LIG1        0.0761
      6 N          -5.3207   -0.9034   -0.0001 N.ar    1  LIG1       -0.2130
      7 H          -1.4054   -0.7607   -0.0009 H       1  LIG1        0.0620
      8 H          -2.5135   -3.1487    0.0004 H       1  LIG1        0.0671
      9 O          -5.2431   -3.1437    0.0002 O.3     1  LIG1       -0.4924
     10 H          -4.6298   -3.8823    0.0002 H       1  LIG1        0.2937
     11 H          -2.6846    1.5410   -0.0003 H       1  LIG1        0.0639
     12 C          -4.8076    2.6130    0.0003 C.ar    1  LIG1        0.0346
     13 C          -5.6584    3.7353    0.0017 C.ar    1  LIG1       -0.0343
     14 C          -5.4065    1.3366   -0.0004 C.ar    1  LIG1        0.0193
     15 C          -7.0444    3.5952    0.0018 C.ar    1  LIG1        0.0299
     16 H          -5.2172    4.7295    0.0025 H       1  LIG1        0.0637
     17 C          -6.7901    1.1962   -0.0003 C.ar    1  LIG1       -0.0092
     18 C          -7.6184    2.3233    0.0007 C.ar    1  LIG1        0.1254
     19 H          -7.2278    0.2012   -0.0008 H       1  LIG1        0.0661
     20 C          -3.5222    2.8072    0.0000 C.1     1  LIG1       -0.0690
     21 C          -2.3345    2.9867   -0.0002 C.1     1  LIG1       -0.1139
     22 H          -1.2765    3.1465   -0.0005 H       1  LIG1        0.1232
     23 O          -8.9112    2.1860    0.0009 O.3     1  LIG1       -0.5061
     24 H          -9.1342    1.2522    0.0010 H       1  LIG1        0.2922
     25 C          -9.2010    4.5263   -0.0174 C.ar    1  LIG1        0.2211
     26 C          -7.8000    4.6531    0.0030 C.ar    1  LIG1        0.0505
     27 C          -7.2468    5.9347    0.0247 C.ar    1  LIG1       -0.0049
     28 C          -8.1038    7.0366    0.0251 C.ar    1  LIG1        0.1469
     29 C          -9.4919    6.8077    0.0036 C.ar    1  LIG1        0.1198
     30 N         -10.0426    5.5782   -0.0173 N.ar    1  LIG1       -0.2087
     31 H          -6.1565    6.0732    0.0399 H       1  LIG1        0.0662
     32 O          -9.7631    3.3542   -0.0378 O.3     1  LIG1       -0.4920
     33 H          -9.0856    2.6740   -0.0429 H       1  LIG1        0.2937
     34 O          -7.6381    8.2502    0.0446 O.3     1  LIG1       -0.4929
     35 C          -6.2086    8.2128    0.0517 C.3     1  LIG1        0.0789
     36 H          -5.8257    9.2118    0.0676 H       1  LIG1        0.0660
     37 H          -5.8699    7.6872    0.9200 H       1  LIG1        0.0660
     38 H          -5.8606    7.7114   -0.8271 H       1  LIG1        0.0660
     39 C          -9.8491    9.1263    0.0250 C.ar    1  LIG1        0.1262
     40 C         -10.7976   10.1673    0.0251 C.ar    1  LIG1       -0.0184
     41 C         -10.3302    7.8012    0.0031 C.ar    1  LIG1        0.0466
     42 C         -12.1652    9.9029    0.0038 C.ar    1  LIG1       -0.0429
     43 H         -10.4481   11.1972    0.0420 H       1  LIG1        0.0655
     44 C         -11.6954    7.5368   -0.0181 C.ar    1  LIG1       -0.0335
     45 C         -12.6220    8.5846   -0.0181 C.ar    1  LIG1        0.0255
     46 H         -12.0414    6.5064   -0.0347 H       1  LIG1        0.0637
     47 H         -13.0132   10.8883    0.0045 H       1  LIG1        0.0631
     48 O          -8.5865    9.4356    0.0452 O.3     1  LIG1       -0.5061
     49 H          -8.4907   10.3908    0.0502 H       1  LIG1        0.2922
     50 C         -13.8969    8.3312   -0.0378 C.1     1  LIG1       -0.0696
     51 C         -15.0750    8.0972   -0.0561 C.1     1  LIG1       -0.1139
     52 H         -16.1243    7.8887   -0.0724 H       1  LIG1        0.1232
@<TRIPOS>BOND
     1    38    35    1
     2    52    51    1
     3    51    50    3
     4    33    32    1
     5    50    45    1
     6    32    25    1
     7    46    44    1
     8    44    45   ar
     9    44    41   ar
    10    45    42   ar
    11    25    30   ar
    12    25    26   ar
    13    30    29   ar
    14     7     3    1
    15    19    17    1
    16    22    21    1
    17    14    17   ar
    18    14     5    1
    19    14    12   ar
    20    17    18   ar
    21    11     4    1
    22     5     6   ar
    23     5     4   ar
    24    21    20    3
    25     6     1   ar
    26     4     3   ar
    27    20    12    1
    28     1     2   ar
    29     1     9    1
    30     2     3   ar
    31     2     8    1
    32     9    10    1
    33    12    13   ar
    34    18    23    1
    35    18    15   ar
    36    23    24    1
    37    13    15   ar
    38    13    16    1
    39    15    26    1
    40    26    27   ar
    41    41    29    1
    42    41    39   ar
    43    29    28   ar
    44    42    47    1
    45    42    40   ar
    46    27    28   ar
    47    27    31    1
    48    39    40   ar
    49    39    48    1
    50    28    34    1
    51    40    43    1
    52    34    35    1
    53    48    49    1
    54    35    36    1
    55    35    37    1
