@<TRIPOS>MOLECULE
mol_data/noopt/geoms/mol2/6fa4fd(350)13ff(320)6ei(20).out
 48 51 0 0 0
SMALL
GASTEIGER

@<TRIPOS>ATOM
      1 C          -4.5775   -2.0270    0.0001 C.ar    1  LIG1        0.2128
      2 C          -3.1706   -2.0270    0.0001 C.ar    1  LIG1       -0.0001
      3 C          -2.5039   -0.8004    0.0001 C.ar    1  LIG1       -0.0547
      4 C          -3.2580    0.3743   -0.0001 C.ar    1  LIG1       -0.0353
      5 C          -4.6612    0.2715   -0.0003 C.ar    1  LIG1        0.0783
      6 N          -5.3207   -0.9034   -0.0001 N.ar    1  LIG1       -0.2129
      7 H          -1.4054   -0.7607   -0.0009 H       1  LIG1        0.0620
      8 H          -2.5135   -3.1487    0.0004 H       1  LIG1        0.0671
      9 O          -5.2431   -3.1437    0.0002 O.3     1  LIG1       -0.4924
     10 H          -4.6298   -3.8823    0.0002 H       1  LIG1        0.2937
     11 H          -2.6846    1.5410   -0.0003 H       1  LIG1        0.0639
     12 C          -4.8227    2.6024   -0.2120 C.ar    1  LIG1        0.1267
     13 C          -5.6726    3.7253   -0.2013 C.ar    1  LIG1       -0.0091
     14 C          -5.4065    1.3366   -0.0004 C.ar    1  LIG1        0.0431
     15 C          -7.0435    3.5959    0.0099 C.ar    1  LIG1        0.0228
     16 H          -5.2429    4.7115   -0.3623 H       1  LIG1        0.0661
     17 C          -6.7750    1.2068    0.2105 C.ar    1  LIG1       -0.0310
     18 C          -7.6028    2.3343    0.2171 C.ar    1  LIG1        0.0618
     19 H          -7.2012    0.2199    0.3714 H       1  LIG1        0.0638
     20 O          -3.5518    2.7864   -0.4145 O.3     1  LIG1       -0.5061
     21 H          -3.3683    3.7274   -0.4644 H       1  LIG1        0.2922
     22 N         -10.0089    2.0945    0.5894 N.1     1  LIG1       -0.1908
     23 C          -8.8813    2.2069    0.4149 C.1     1  LIG1        0.0998
     24 C          -7.7988    4.6540    0.0133 C.ar    1  LIG1        0.0941
     25 C          -7.6458    5.8487   -0.6169 C.ar    1  LIG1        0.1848
     26 C          -8.7716    6.6627   -0.2695 C.ar    1  LIG1        0.1849
     27 C          -9.5639    5.9289    0.5563 C.ar    1  LIG1        0.0954
     28 N          -8.9718    4.6986    0.7325 N.ar    1  LIG1       -0.3482
     29 H          -9.3340    3.9596    1.2899 H       1  LIG1        0.1661
     30 O          -6.6573    6.1870   -1.3905 O.3     1  LIG1       -0.5019
     31 H          -6.7067    7.1266   -1.5811 H       1  LIG1        0.2924
     32 O          -8.9980    7.8791   -0.6685 O.3     1  LIG1       -0.5019
     33 H          -9.9435    8.0133   -0.7668 H       1  LIG1        0.2924
     34 C         -11.7779    5.3396    1.0751 C.ar    1  LIG1        0.1223
     35 C         -10.6900    6.2298    1.1320 C.ar    1  LIG1        0.0361
     36 C         -10.8501    7.4352    1.8178 C.ar    1  LIG1       -0.0455
     37 C         -12.0803    7.7086    2.4181 C.ar    1  LIG1       -0.0316
     38 C         -13.1088    6.7551    2.3060 C.ar    1  LIG1        0.0319
     39 N         -12.9716    5.5872    1.6484 N.ar    1  LIG1       -0.2458
     40 H         -10.0228    8.1561    1.8827 H       1  LIG1        0.0628
     41 H         -14.2719    6.9639    2.8478 H       1  LIG1        0.0832
     42 C         -11.6775    4.2050    0.4484 C.1     1  LIG1       -0.0491
     43 C         -11.5847    3.1567   -0.1306 C.1     1  LIG1       -0.1124
     44 H         -11.5020    2.2228   -0.6464 H       1  LIG1        0.1232
     45 C         -12.2797    8.8170    3.0680 C.3     1  LIG1       -0.0383
     46 H         -13.1496    8.7184    3.6832 H       1  LIG1        0.0278
     47 H         -12.4237    9.6173    2.3724 H       1  LIG1        0.0278
     48 H         -11.4298    9.0276    3.6831 H       1  LIG1        0.0278
@<TRIPOS>BOND
     1    31    30    1
     2    30    25    1
     3    33    32    1
     4    32    26    1
     5    44    43    1
     6    25    26   ar
     7    25    24   ar
     8    21    20    1
     9    20    12    1
    10    16    13    1
    11    26    27   ar
    12    12    13   ar
    13    12    14   ar
    14    13    15   ar
    15    43    42    3
    16     7     3    1
    17    14     5    1
    18    14    17   ar
    19    11     4    1
    20     5     6   ar
    21     5     4   ar
    22     6     1   ar
    23     4     3   ar
    24     1     2   ar
    25     1     9    1
    26     3     2   ar
    27     2     8    1
    28     9    10    1
    29    15    24    1
    30    15    18   ar
    31    24    28   ar
    32    17    18   ar
    33    17    19    1
    34    18    23    1
    35    23    22    3
    36    42    34    1
    37    27    28   ar
    38    27    35    1
    39    28    29    1
    40    34    35   ar
    41    34    39   ar
    42    35    36   ar
    43    39    38   ar
    44    36    40    1
    45    36    37   ar
    46    38    37   ar
    47    38    41    1
    48    47    45    1
    49    37    45    1
    50    45    48    1
    51    45    46    1
