@<TRIPOS>MOLECULE
mol_data/noopt/geoms/mol2/6fa6he-13ih-6ea-.out
 49 52 0 0 0
SMALL
GASTEIGER

@<TRIPOS>ATOM
      1 C          -4.5775   -2.0270    0.0001 C.ar    1  LIG1        0.2128
      2 C          -3.1706   -2.0270    0.0001 C.ar    1  LIG1       -0.0001
      3 C          -2.5039   -0.8004    0.0001 C.ar    1  LIG1       -0.0547
      4 C          -3.2580    0.3743   -0.0001 C.ar    1  LIG1       -0.0353
      5 C          -4.6612    0.2715   -0.0003 C.ar    1  LIG1        0.0781
      6 N          -5.3207   -0.9034   -0.0001 N.ar    1  LIG1       -0.2129
      7 H          -1.4054   -0.7607   -0.0009 H       1  LIG1        0.0620
      8 H          -2.5135   -3.1487    0.0004 H       1  LIG1        0.0671
      9 O          -5.2431   -3.1437    0.0002 O.3     1  LIG1       -0.4924
     10 H          -4.6298   -3.8823    0.0002 H       1  LIG1        0.2937
     11 H          -2.6846    1.5410   -0.0003 H       1  LIG1        0.0639
     12 C          -6.8087    1.2234   -0.0215 C.ar    1  LIG1        0.1262
     13 C          -5.4065    1.3366   -0.0004 C.ar    1  LIG1        0.0412
     14 C          -4.8409    2.6128    0.0206 C.ar    1  LIG1       -0.0317
     15 C          -5.6872    3.7230    0.0196 C.ar    1  LIG1        0.0528
     16 C          -7.0774    3.5076   -0.0025 C.ar    1  LIG1        0.1049
     17 N          -7.6400    2.2835   -0.0227 N.ar    1  LIG1       -0.2291
     18 H          -3.7493    2.7408    0.0363 H       1  LIG1        0.0638
     19 N          -7.3820    0.0568   -0.0413 N.pl3   1  LIG1       -0.3426
     20 H          -8.2587    0.1243   -0.5178 H       1  LIG1        0.1437
     21 H          -6.7931   -0.5960   -0.5178 H       1  LIG1        0.1437
     22 C          -5.2098    4.9320    0.0384 C.1     1  LIG1       -0.0674
     23 C          -4.7686    6.0491    0.0558 C.1     1  LIG1       -0.1138
     24 H          -4.3757    7.0442    0.0713 H       1  LIG1        0.1232
     25 C          -7.9061    4.5092   -0.0043 C.ar    1  LIG1        0.0714
     26 C          -7.6714    5.8481    0.0108 C.ar    1  LIG1       -0.0024
     27 C          -8.9435    6.5055    0.0014 C.ar    1  LIG1        0.0539
     28 C          -9.8997    5.5394   -0.0208 C.ar    1  LIG1        0.0708
     29 N          -9.2689    4.3158   -0.0239 N.ar    1  LIG1       -0.3512
     30 H          -9.7251    3.4327   -0.0386 H       1  LIG1        0.1660
     31 C          -6.5049    6.4225    0.0316 C.3     1  LIG1       -0.0359
     32 H          -6.5781    7.3602    0.5417 H       1  LIG1        0.0279
     33 H          -6.1705    6.5872   -0.9714 H       1  LIG1        0.0279
     34 H          -5.8063    5.7926    0.5416 H       1  LIG1        0.0279
     35 N          -9.1500    7.7890    0.0116 N.pl3   1  LIG1       -0.3561
     36 H          -8.3974    8.2514   -0.4572 H       1  LIG1        0.1424
     37 H         -10.0097    7.9920   -0.4572 H       1  LIG1        0.1424
     38 C         -11.9949    4.4781   -0.0661 C.ar    1  LIG1        0.1222
     39 C         -11.1960    5.6358   -0.0365 C.ar    1  LIG1        0.0339
     40 C         -11.8270    6.8811   -0.0243 C.ar    1  LIG1       -0.0485
     41 C         -13.2220    6.9278   -0.0420 C.ar    1  LIG1       -0.0429
     42 C         -13.9342    5.7147   -0.0715 C.ar    1  LIG1        0.0290
     43 N         -13.3417    4.5047   -0.0836 N.ar    1  LIG1       -0.2460
     44 H         -11.2359    7.8076   -0.0022 H       1  LIG1        0.0625
     45 H         -15.2340    5.7064   -0.0888 H       1  LIG1        0.0830
     46 C         -11.4538    3.2962   -0.0785 C.1     1  LIG1       -0.0491
     47 C         -10.9538    2.2040   -0.0898 C.1     1  LIG1       -0.1124
     48 H         -10.5084    1.2312   -0.1000 H       1  LIG1        0.1232
     49 H         -13.8567    8.0623   -0.0318 H       1  LIG1        0.0633
@<TRIPOS>BOND
     1    33    31    1
     2    21    19    1
     3    20    19    1
     4    37    35    1
     5    36    35    1
     6    48    47    1
     7    47    46    3
     8    45    42    1
     9    43    42   ar
    10    43    38   ar
    11    46    38    1
    12    42    41   ar
    13    38    39   ar
    14    41    49    1
    15    41    40   ar
    16    19    12    1
    17    30    29    1
    18    39    40   ar
    19    39    28    1
    20    40    44    1
    21    29    28   ar
    22    29    25   ar
    23    17    12   ar
    24    17    16   ar
    25    12    13   ar
    26    28    27   ar
    27    25    16    1
    28    25    26   ar
    29    16    15   ar
    30     7     3    1
    31    13     5    1
    32    13    14   ar
    33     5     4   ar
    34     5     6   ar
    35    11     4    1
    36     4     3   ar
    37     6     1   ar
    38     1     2   ar
    39     1     9    1
    40     2     3   ar
    41     2     8    1
    42     9    10    1
    43    27    26   ar
    44    27    35    1
    45    26    31    1
    46    15    14   ar
    47    15    22    1
    48    14    18    1
    49    31    34    1
    50    31    32    1
    51    22    23    3
    52    23    24    1
