@<TRIPOS>MOLECULE
mol_data/noopt/geoms/mol2/6fa6fl(270)12ed(190)6he(280).out
 49 52 0 0 0
SMALL
GASTEIGER

@<TRIPOS>ATOM
      1 C          -4.5775   -2.0270    0.0001 C.ar    1  LIG1        0.2128
      2 C          -3.1706   -2.0270    0.0001 C.ar    1  LIG1       -0.0001
      3 C          -2.5039   -0.8004    0.0001 C.ar    1  LIG1       -0.0547
      4 C          -3.2580    0.3743   -0.0001 C.ar    1  LIG1       -0.0353
      5 C          -4.6612    0.2715   -0.0003 C.ar    1  LIG1        0.0800
      6 N          -5.3207   -0.9034   -0.0001 N.ar    1  LIG1       -0.2129
      7 H          -1.4054   -0.7607   -0.0009 H       1  LIG1        0.0620
      8 H          -2.5135   -3.1487    0.0004 H       1  LIG1        0.0671
      9 O          -5.2431   -3.1437    0.0002 O.3     1  LIG1       -0.4924
     10 H          -4.6298   -3.8823    0.0002 H       1  LIG1        0.2937
     11 H          -2.6846    1.5410   -0.0003 H       1  LIG1        0.0639
     12 C          -5.8141    1.9195    1.2135 C.ar    1  LIG1        0.2226
     13 C          -5.4065    1.3366   -0.0004 C.ar    1  LIG1        0.0653
     14 C          -5.8199    1.9277   -1.1957 C.ar    1  LIG1       -0.0034
     15 C          -6.6195    3.0705   -1.1389 C.ar    1  LIG1        0.1499
     16 C          -6.9753    3.5790    0.1237 C.ar    1  LIG1        0.1525
     17 N          -6.5853    3.0217    1.2867 N.ar    1  LIG1       -0.2056
     18 H          -5.5221    1.5001   -2.1636 H       1  LIG1        0.0663
     19 O          -5.4547    1.4057    2.3523 O.3     1  LIG1       -0.4919
     20 H          -4.6246    1.7979    2.6330 H       1  LIG1        0.2937
     21 O          -7.0305    3.6578   -2.2235 O.3     1  LIG1       -0.4928
     22 C          -6.0769    4.6463   -2.6217 C.3     1  LIG1        0.0789
     23 H          -6.4155    5.1292   -3.5145 H       1  LIG1        0.0660
     24 H          -5.9688    5.3718   -1.8427 H       1  LIG1        0.0660
     25 H          -5.1329    4.1774   -2.8059 H       1  LIG1        0.0660
     26 C          -7.7181    4.6408    0.2284 C.ar    1  LIG1        0.1741
     27 C          -9.0702    4.9057    0.1603 C.ar    1  LIG1        0.0900
     28 C          -9.2248    6.3303    0.3686 C.ar    1  LIG1        0.1135
     29 C          -7.9563    6.8417    0.5503 C.ar    1  LIG1        0.1576
     30 O          -7.0103    5.8194    0.4683 O.2     1  LIG1       -0.4504
     31 C         -10.0368    4.0618   -0.0485 C.1     1  LIG1       -0.0645
     32 C         -10.9299    3.2821   -0.2415 C.1     1  LIG1       -0.1138
     33 H         -11.7255    2.5875   -0.4134 H       1  LIG1        0.1232
     34 N         -11.3475    7.5468    0.3859 N.1     1  LIG1       -0.1907
     35 C         -10.3527    6.9767    0.3778 C.1     1  LIG1        0.1042
     36 C          -7.4567    8.5592    2.0732 C.ar    1  LIG1        0.1270
     37 C          -7.4561    8.0207    0.7734 C.ar    1  LIG1        0.0592
     38 C          -6.9083    8.7797   -0.2624 C.ar    1  LIG1       -0.0309
     39 C          -6.3844   10.0396    0.0321 C.ar    1  LIG1        0.0436
     40 C          -6.4310   10.4917    1.3637 C.ar    1  LIG1        0.0451
     41 N          -6.9556    9.7726    2.3751 N.ar    1  LIG1       -0.2388
     42 H          -6.8910    8.3925   -1.2911 H       1  LIG1        0.0638
     43 H          -5.9559   11.6576    1.6876 H       1  LIG1        0.0843
     44 N          -7.9553    7.8906    3.0704 N.pl3   1  LIG1       -0.3426
     45 H          -8.9539    7.9175    3.0236 H       1  LIG1        0.1437
     46 H          -7.6450    6.9412    3.0236 H       1  LIG1        0.1437
     47 C          -5.8635   10.7848   -0.8970 C.1     1  LIG1       -0.0681
     48 C          -5.3822   11.4734   -1.7556 C.1     1  LIG1       -0.1139
     49 H          -4.9535   12.0868   -2.5203 H       1  LIG1        0.1232
@<TRIPOS>BOND
     1    23    22    1
     2    25    22    1
     3    22    21    1
     4    22    24    1
     5    49    48    1
     6    21    15    1
     7    18    14    1
     8    48    47    3
     9    42    38    1
    10    14    15   ar
    11    14    13   ar
    12    15    16   ar
    13    47    39    1
    14    33    32    1
    15    38    39   ar
    16    38    37   ar
    17    32    31    3
    18    31    27    1
    19     7     3    1
    20    13     5    1
    21    13    12   ar
    22    11     4    1
    23     5     4   ar
    24     5     6   ar
    25     4     3   ar
    26     6     1   ar
    27     1     2   ar
    28     1     9    1
    29     2     3   ar
    30     2     8    1
    31     9    10    1
    32    39    40   ar
    33    16    26    1
    34    16    17   ar
    35    27    26   ar
    36    27    28   ar
    37    26    30   ar
    38    28    35    1
    39    28    29   ar
    40    35    34    3
    41    30    29   ar
    42    29    37    1
    43    37    36   ar
    44    12    17   ar
    45    12    19    1
    46    40    43    1
    47    40    41   ar
    48    36    41   ar
    49    36    44    1
    50    19    20    1
    51    46    44    1
    52    45    44    1
