@<TRIPOS>MOLECULE
mol_data/noopt/geoms/mol2/6fa6fa-4fa6fa.out
 43 46 0 0 0
SMALL
GASTEIGER

@<TRIPOS>ATOM
      1 C          -4.5775   -2.0270    0.0001 C.ar    1  LIG1        0.2128
      2 C          -3.1706   -2.0270    0.0001 C.ar    1  LIG1       -0.0001
      3 C          -2.5039   -0.8004    0.0001 C.ar    1  LIG1       -0.0547
      4 C          -3.2580    0.3743   -0.0001 C.ar    1  LIG1       -0.0353
      5 C          -4.6612    0.2715   -0.0003 C.ar    1  LIG1        0.0799
      6 N          -5.3207   -0.9034   -0.0001 N.ar    1  LIG1       -0.2129
      7 H          -1.4054   -0.7607   -0.0009 H       1  LIG1        0.0620
      8 H          -2.5135   -3.1487    0.0004 H       1  LIG1        0.0671
      9 O          -5.2431   -3.1437    0.0002 O.3     1  LIG1       -0.4924
     10 H          -4.6298   -3.8823    0.0002 H       1  LIG1        0.2937
     11 H          -2.6846    1.5410   -0.0003 H       1  LIG1        0.0639
     12 C          -4.8196    2.6153   -0.0003 C.ar    1  LIG1        0.2223
     13 C          -5.4065    1.3366   -0.0004 C.ar    1  LIG1        0.0618
     14 C          -6.7994    1.2424   -0.0003 C.ar    1  LIG1       -0.0454
     15 C          -7.5524    2.4178   -0.0003 C.ar    1  LIG1       -0.0347
     16 C          -6.8736    3.6502   -0.0004 C.ar    1  LIG1        0.0783
     17 N          -5.5307    3.7594   -0.0003 N.ar    1  LIG1       -0.2124
     18 H          -7.2937    0.2606   -0.0014 H       1  LIG1        0.0626
     19 O          -3.5270    2.7543   -0.0003 O.3     1  LIG1       -0.4919
     20 H          -3.3053    3.6884   -0.0003 H       1  LIG1        0.2937
     21 H          -8.8520    2.3834   -0.0004 H       1  LIG1        0.0639
     22 C          -6.8310    5.9958    0.0005 C.ar    1  LIG1        0.1266
     23 C          -7.5886    7.1830    0.0022 C.ar    1  LIG1       -0.0116
     24 C          -7.5307    4.7718   -0.0003 C.ar    1  LIG1        0.0419
     25 C          -8.9814    7.1551    0.0023 C.ar    1  LIG1       -0.0093
     26 H          -7.0688    8.1385    0.0030 H       1  LIG1        0.0660
     27 C          -8.9211    4.7434   -0.0001 C.ar    1  LIG1       -0.0485
     28 C          -9.6560    5.9336    0.0011 C.ar    1  LIG1       -0.0530
     29 H          -9.4376    3.7869   -0.0006 H       1  LIG1        0.0625
     30 O          -5.5341    6.0859    0.0002 O.3     1  LIG1       -0.5061
     31 H          -5.2771    7.0109    0.0001 H       1  LIG1        0.2922
     32 H         -10.9556    5.9008    0.0014 H       1  LIG1        0.0624
     33 C         -11.0562    8.2567    0.0047 C.ar    1  LIG1        0.2202
     34 C          -9.6493    8.2703    0.0037 C.ar    1  LIG1        0.0436
     35 C          -8.9946    9.5034    0.0047 C.ar    1  LIG1       -0.0475
     36 C          -9.7600   10.6707    0.0063 C.ar    1  LIG1       -0.0428
     37 C         -11.1621   10.5543    0.0069 C.ar    1  LIG1        0.0314
     38 N         -11.8102    9.3730    0.0062 N.ar    1  LIG1       -0.2209
     39 H          -7.8965    9.5537    0.0030 H       1  LIG1        0.0626
     40 H         -11.9177   11.6121    0.0085 H       1  LIG1        0.0831
     41 O         -11.7109    7.1336    0.0040 O.3     1  LIG1       -0.4920
     42 H         -11.0905    6.4010    0.0038 H       1  LIG1        0.2937
     43 H          -9.1980   11.8429    0.0071 H       1  LIG1        0.0633
@<TRIPOS>BOND
     1    18    14    1
     2     7     3    1
     3    29    27    1
     4    13    14   ar
     5    13     5    1
     6    13    12   ar
     7    21    15    1
     8    16    15   ar
     9    16    24    1
    10    16    17   ar
    11    14    15   ar
    12     5     6   ar
    13     5     4   ar
    14    11     4    1
    15    24    27   ar
    16    24    22   ar
    17    12    17   ar
    18    12    19    1
    19    19    20    1
    20     6     1   ar
    21     4     3   ar
    22    27    28   ar
    23    31    30    1
    24     1     2   ar
    25     1     9    1
    26     3     2   ar
    27     2     8    1
    28    30    22    1
    29     9    10    1
    30    22    23   ar
    31    28    32    1
    32    28    25   ar
    33    23    25   ar
    34    23    26    1
    35    25    34    1
    36    39    35    1
    37    34    33   ar
    38    34    35   ar
    39    42    41    1
    40    41    33    1
    41    33    38   ar
    42    35    36   ar
    43    38    37   ar
    44    36    37   ar
    45    36    43    1
    46    37    40    1
