@<TRIPOS>MOLECULE
mol_data/noopt/geoms/mol2/6fa6fa6fa-6fa-.out
 42 45 0 0 0
SMALL
GASTEIGER

@<TRIPOS>ATOM
      1 C          -4.5775   -2.0270    0.0001 C.ar    1  LIG1        0.2128
      2 C          -3.1706   -2.0270    0.0001 C.ar    1  LIG1       -0.0001
      3 C          -2.5039   -0.8004    0.0001 C.ar    1  LIG1       -0.0547
      4 C          -3.2580    0.3743   -0.0001 C.ar    1  LIG1       -0.0353
      5 C          -4.6612    0.2715   -0.0003 C.ar    1  LIG1        0.0799
      6 N          -5.3207   -0.9034   -0.0001 N.ar    1  LIG1       -0.2129
      7 H          -1.4054   -0.7607   -0.0009 H       1  LIG1        0.0620
      8 H          -2.5135   -3.1487    0.0004 H       1  LIG1        0.0671
      9 O          -5.2431   -3.1437    0.0002 O.3     1  LIG1       -0.4924
     10 H          -4.6298   -3.8823    0.0002 H       1  LIG1        0.2937
     11 H          -2.6846    1.5410   -0.0003 H       1  LIG1        0.0639
     12 C          -6.8088    1.2233   -0.0003 C.ar    1  LIG1        0.2223
     13 C          -5.4065    1.3366   -0.0004 C.ar    1  LIG1        0.0618
     14 C          -4.8408    2.6129   -0.0003 C.ar    1  LIG1       -0.0454
     15 C          -5.6871    3.7231   -0.0003 C.ar    1  LIG1       -0.0347
     16 C          -7.0774    3.5076   -0.0004 C.ar    1  LIG1        0.0799
     17 N          -7.6401    2.2834   -0.0003 N.ar    1  LIG1       -0.2123
     18 H          -3.7491    2.7410   -0.0014 H       1  LIG1        0.0626
     19 O          -7.3823    0.0566   -0.0003 O.3     1  LIG1       -0.4919
     20 H          -6.7115   -0.6302   -0.0003 H       1  LIG1        0.2937
     21 H          -5.2095    4.9322   -0.0004 H       1  LIG1        0.0639
     22 C          -7.4241    5.8310   -0.0000 C.ar    1  LIG1        0.2223
     23 C          -7.9061    4.5092   -0.0003 C.ar    1  LIG1        0.0618
     24 C          -9.2869    4.3031   -0.0001 C.ar    1  LIG1       -0.0454
     25 C         -10.1321    5.4140    0.0002 C.ar    1  LIG1       -0.0347
     26 C          -9.5548    6.6971    0.0002 C.ar    1  LIG1        0.0799
     27 N          -8.2251    6.9141    0.0002 N.ar    1  LIG1       -0.2123
     28 H          -9.7005    3.2847   -0.0012 H       1  LIG1        0.0626
     29 O          -6.1469    6.0737   -0.0001 O.3     1  LIG1       -0.4919
     30 H          -6.0011    7.0226   -0.0001 H       1  LIG1        0.2937
     31 H         -11.4247    5.2750    0.0002 H       1  LIG1        0.0639
     32 C          -9.7132    9.0408    0.0008 C.ar    1  LIG1        0.2217
     33 C         -10.3001    7.7622    0.0005 C.ar    1  LIG1        0.0618
     34 C         -11.6930    7.6680    0.0008 C.ar    1  LIG1       -0.0460
     35 C         -12.4461    8.8434    0.0012 C.ar    1  LIG1       -0.0427
     36 C         -11.7673   10.0758    0.0013 C.ar    1  LIG1        0.0314
     37 N         -10.4244   10.1850    0.0012 N.ar    1  LIG1       -0.2209
     38 H         -12.1874    6.6862   -0.0005 H       1  LIG1        0.0626
     39 H         -12.4244   11.1974    0.0018 H       1  LIG1        0.0831
     40 O          -8.4207    9.1799    0.0006 O.3     1  LIG1       -0.4919
     41 H          -8.1989   10.1139    0.0006 H       1  LIG1        0.2937
     42 H         -13.7456    8.8090    0.0013 H       1  LIG1        0.0633
@<TRIPOS>BOND
     1    18    14    1
     2    28    24    1
     3     7     3    1
     4    38    34    1
     5    13     5    1
     6    13    12   ar
     7    13    14   ar
     8    16    17   ar
     9    16    23    1
    10    16    15   ar
    11    21    15    1
    12     5     6   ar
    13     5     4   ar
    14    11     4    1
    15    12    19    1
    16    12    17   ar
    17    14    15   ar
    18    19    20    1
    19    23    24   ar
    20    23    22   ar
    21    30    29    1
    22    29    22    1
    23     6     1   ar
    24     4     3   ar
    25    24    25   ar
    26    22    27   ar
    27     1     2   ar
    28     1     9    1
    29     3     2   ar
    30     2     8    1
    31    25    31    1
    32    25    26   ar
    33    26    27   ar
    34    26    33    1
    35     9    10    1
    36    33    34   ar
    37    33    32   ar
    38    41    40    1
    39    40    32    1
    40    34    35   ar
    41    32    37   ar
    42    35    36   ar
    43    35    42    1
    44    37    36   ar
    45    36    39    1
