@<TRIPOS>MOLECULE
mol_data/noopt/geoms/mol2/6fa6la-12hi12ae-4fi13ll-4di-4ai.out
 103 107 0 0 0
SMALL
GASTEIGER

@<TRIPOS>ATOM
      1 C          -4.5775   -2.0270    0.0001 C.ar    1  LIG1        0.2128
      2 C          -3.1706   -2.0270    0.0001 C.ar    1  LIG1       -0.0001
      3 C          -2.5039   -0.8004    0.0001 C.ar    1  LIG1       -0.0547
      4 C          -3.2580    0.3743   -0.0001 C.ar    1  LIG1       -0.0353
      5 C          -4.6612    0.2715   -0.0003 C.ar    1  LIG1        0.0799
      6 N          -5.3207   -0.9034   -0.0001 N.ar    1  LIG1       -0.2129
      7 H          -1.4054   -0.7607   -0.0009 H       1  LIG1        0.0620
      8 H          -2.5135   -3.1487    0.0004 H       1  LIG1        0.0671
      9 O          -5.2431   -3.1437    0.0002 O.3     1  LIG1       -0.4924
     10 H          -4.6298   -3.8823    0.0002 H       1  LIG1        0.2937
     11 H          -2.6846    1.5410   -0.0003 H       1  LIG1        0.0639
     12 C          -6.8087    1.2234   -0.0215 C.ar    1  LIG1        0.2245
     13 C          -5.4065    1.3366   -0.0004 C.ar    1  LIG1        0.0620
     14 C          -4.8409    2.6128    0.0206 C.ar    1  LIG1       -0.0453
     15 C          -5.6872    3.7230    0.0196 C.ar    1  LIG1       -0.0317
     16 C          -7.0774    3.5076   -0.0025 C.ar    1  LIG1        0.1117
     17 N          -7.6400    2.2835   -0.0227 N.ar    1  LIG1       -0.2092
     18 H          -3.7493    2.7408    0.0363 H       1  LIG1        0.0626
     19 O          -7.3821    0.0568   -0.0413 O.3     1  LIG1       -0.4792
     20 C          -8.8023    0.2231   -0.0487 C.3     1  LIG1        0.0804
     21 H          -9.2738   -0.7373   -0.0652 H       1  LIG1        0.0660
     22 H          -9.1039    0.7534    0.8304 H       1  LIG1        0.0660
     23 H          -9.0921    0.7776   -0.9167 H       1  LIG1        0.0660
     24 H          -5.2098    4.9320    0.0384 H       1  LIG1        0.0640
     25 C          -7.9061    4.5092   -0.0043 C.ar    1  LIG1        0.1748
     26 C          -7.7875    5.8836   -0.0056 C.ar    1  LIG1        0.0762
     27 C          -9.1341    6.4161   -0.0073 C.ar    1  LIG1        0.0197
     28 C          -9.9866    5.3313   -0.0070 C.ar    1  LIG1        0.1754
     29 O          -9.2531    4.1444   -0.0052 O.2     1  LIG1       -0.4480
     30 N          -6.6949    6.5880   -0.0053 N.pl3   1  LIG1       -0.3548
     31 H          -5.9722    6.0824   -0.4766 H       1  LIG1        0.1424
     32 H          -6.8570    7.4549   -0.4766 H       1  LIG1        0.1424
     33 C          -9.4503    7.6774   -0.0088 C.3     1  LIG1       -0.0342
     34 H         -10.3846    7.8116    0.4952 H       1  LIG1        0.0279
     35 H          -9.5368    8.0222   -1.0181 H       1  LIG1        0.0279
     36 H          -8.6897    8.2364    0.4951 H       1  LIG1        0.0279
     37 C         -11.2761    5.1666   -0.0079 C.ar    1  LIG1        0.1721
     38 C         -12.3742    6.0017   -0.0086 C.ar    1  LIG1        0.0033
     39 C         -13.5442    5.1485   -0.0095 C.ar    1  LIG1        0.0708
     40 C         -13.0833    3.8481   -0.0094 C.ar    1  LIG1        0.1501
     41 O         -11.6881    3.8332   -0.0085 O.2     1  LIG1       -0.4507
     42 H         -12.3851    7.3017   -0.0084 H       1  LIG1        0.0669
     43 C         -14.7788    5.5557   -0.0103 C.1     1  LIG1       -0.0659
     44 C         -15.9195    5.9319   -0.0111 C.1     1  LIG1       -0.1138
     45 H         -16.9357    6.2671   -0.0118 H       1  LIG1        0.1232
     46 C         -15.0385    2.5515   -0.0094 C.3     1  LIG1        0.1660
     47 C         -15.5857    1.2538   -0.0084 C.3     2  LIG2        0.0000
     48 C         -13.6337    2.6704   -0.0099 C.2     1  LIG1        0.0341
     49 C         -14.7720    0.1231   -0.0085 C.2     1  LIG1        0.0146
     50 H         -16.6674    1.1393   -0.0078 H       2  LIG2        0.0194
     51 C         -12.8209    1.5419   -0.0100 C.2     1  LIG1       -0.0485
     52 C         -13.3835    0.2612   -0.0094 C.2     1  LIG1       -0.0401
     53 H         -11.7403    1.6598   -0.0103 H       1  LIG1        0.0625
     54 O         -15.8489    3.5680   -0.0095 O.3     1  LIG1       -0.3772
     55 H         -16.7563    3.2544   -0.0095 H       1  LIG1        0.2109
     56 C         -12.6185   -0.7902   -0.0094 C.3     1  LIG1       -0.0391
     57 H         -11.7022   -0.5647    0.4950 H       1  LIG1        0.0278
     58 H         -12.4086   -1.0787   -1.0182 H       1  LIG1        0.0278
     59 H         -13.1152   -1.5926    0.4950 H       1  LIG1        0.0278
     60 C         -15.3110   -1.0599   -0.0077 C.ar    1  LIG1        0.0989
     61 C         -16.6178   -1.4337    0.0091 C.ar    1  LIG1        0.2460
     62 C         -16.6533   -2.8652    0.0022 C.ar    1  LIG1        0.1926
     63 C         -15.3666   -3.3033   -0.0203 C.ar    1  LIG1        0.0943
     64 N         -14.5415   -2.2013   -0.0260 N.ar    1  LIG1       -0.3481
     65 H         -13.5479   -2.2258   -0.0414 H       1  LIG1        0.1661
     66 O         -17.6438   -0.6356    0.0293 O.3     1  LIG1       -0.2817
     67 C         -17.1928    0.7214    0.0366 C.3     3  LIG3       -0.0776
     68 H         -18.0375    1.3780    0.0531 H       2  LIG2        0.0194
     69 H         -16.5911    0.8926    0.9047 H       2  LIG2        0.0194
     70 H         -16.6123    0.9091   -0.8424 H       2  LIG2        0.0194
     71 O         -17.7176   -3.6118    0.0146 O.3     1  LIG1       -0.4894
     72 C         -18.8824   -2.7822    0.0191 C.3     1  LIG1        0.0791
     73 H         -19.7581   -3.3970    0.0291 H       1  LIG1        0.0660
     74 H         -18.8737   -2.1597    0.8894 H       1  LIG1        0.0660
     75 H         -18.8871   -2.1692   -0.8578 H       1  LIG1        0.0660
     76 C         -15.7637   -5.6155   -0.0197 C.ar    1  LIG1        0.0616
     77 C         -15.1946   -6.9036   -0.0342 C.ar    1  LIG1       -0.0357
     78 C         -14.8870   -4.5114   -0.0342 C.ar    1  LIG1        0.0196
     79 C         -13.8139   -7.0867   -0.0626 C.ar    1  LIG1       -0.0137
     80 H         -15.8529   -7.7694   -0.0232 H       1  LIG1        0.0637
     81 C         -13.5085   -4.6937   -0.0626 C.ar    1  LIG1       -0.0478
     82 C         -12.9624   -5.9813   -0.0770 C.ar    1  LIG1       -0.0420
     83 H         -12.8534   -3.8263   -0.0732 H       1  LIG1        0.0627
     84 N         -18.2015   -5.4138    0.0296 N.1     1  LIG1       -0.1908
     85 C         -17.0590   -5.5083    0.0065 C.1     1  LIG1        0.0998
     86 C         -11.6727   -6.1455   -0.1034 C.3     1  LIG1       -0.0391
     87 H         -11.1985   -5.3252    0.3937 H       1  LIG1        0.0278
     88 H         -11.3392   -6.1879   -1.1192 H       1  LIG1        0.0278
     89 H         -11.4193   -7.0586    0.3937 H       1  LIG1        0.0278
     90 C         -14.1888   -9.4025   -0.0816 C.ar    1  LIG1       -0.0540
     91 C         -13.6072  -10.6851   -0.0941 C.ar    1  LIG1       -0.0609
     92 C         -13.3225   -8.2901   -0.0754 C.ar    1  LIG1       -0.0173
     93 C         -12.2245  -10.8549   -0.1006 C.ar    1  LIG1       -0.0588
     94 H         -14.2572  -11.5572   -0.0988 H       1  LIG1        0.0618
     95 C         -11.9421   -8.4591   -0.0820 C.ar    1  LIG1       -0.0511
     96 C         -11.3835   -9.7414   -0.0948 C.ar    1  LIG1       -0.0499
     97 H         -11.2953   -7.5855   -0.0769 H       1  LIG1        0.0626
     98 H         -11.7215  -12.0536   -0.1122 H       1  LIG1        0.0620
     99 H         -15.4853   -9.3078   -0.0762 H       1  LIG1        0.0624
    100 C         -10.0921   -9.8932   -0.1007 C.3     1  LIG1       -0.0397
    101 H          -9.6336   -9.0675    0.4021 H       1  LIG1        0.0278
    102 H          -9.7424   -9.9343   -1.1112 H       1  LIG1        0.0278
    103 H          -9.8376  -10.8028    0.4020 H       1  LIG1        0.0278
@<TRIPOS>BOND
     1    88    86    1
     2   102   100    1
     3    58    56    1
     4    35    33    1
     5    23    20    1
     6    75    72    1
     7    70    67    1
     8    32    30    1
     9    31    30    1
    10    98    93    1
    11    86    82    1
    12    86    89    1
    13    86    87    1
    14   100    96    1
    15   100   103    1
    16   100   101    1
    17    93    96   ar
    18    93    91   ar
    19    94    91    1
    20    96    95   ar
    21    91    90   ar
    22    95    97    1
    23    95    92   ar
    24    90    99    1
    25    90    92   ar
    26    82    79   ar
    27    82    81   ar
    28    92    79    1
    29    83    81    1
    30    21    20    1
    31    79    77   ar
    32    81    78   ar
    33    20    19    1
    34    20    22    1
    35    65    64    1
    36    19    12    1
    37    78    63    1
    38    78    76   ar
    39    77    80    1
    40    77    76   ar
    41    64    63   ar
    42    64    60   ar
    43    17    12   ar
    44    17    16   ar
    45    12    13   ar
    46    63    62   ar
    47    76    85    1
    48    45    44    1
    49    44    43    3
    50    43    39    1
    51    53    51    1
    52    51    48    2
    53    51    52    1
    54    48    46    1
    55    48    40    1
    56    55    54    1
    57    39    40   ar
    58    39    38   ar
    59    54    46    1
    60    52    56    1
    61    52    49    2
    62    56    59    1
    63    56    57    1
    64    40    41   ar
    65    33    27    1
    66    33    36    1
    67    33    34    1
    68    38    42    1
    69    38    37   ar
    70    49    60    1
    71    41    37   ar
    72    37    28    1
    73    50    67    1
    74    60    61   ar
    75    27    28   ar
    76    27    26   ar
    77    28    29   ar
    78    26    30    1
    79    26    25   ar
    80    29    25   ar
    81    25    16    1
    82    16    15   ar
    83     7     3    1
    84    13     5    1
    85    13    14   ar
    86    11     4    1
    87     5     6   ar
    88     5     4   ar
    89     6     1   ar
    90     4     3   ar
    91     1     2   ar
    92     1     9    1
    93     2     3   ar
    94     2     8    1
    95     9    10    1
    96    62    61   ar
    97    62    71    1
    98    85    84    3
    99    61    66    1
   100    71    72    1
   101    72    73    1
   102    72    74    1
   103    15    14   ar
   104    15    24    1
   105    14    18    1
   106    67    68    1
   107    67    69    1
