@<TRIPOS>MOLECULE
mol_data/noopt/geoms/mol2/6fa6fa.out
 22 23 0 0 0
SMALL
GASTEIGER

@<TRIPOS>ATOM
      1 C          -4.5775   -2.0270    0.0001 C.ar    1  LIG1        0.2128
      2 C          -3.1706   -2.0270    0.0001 C.ar    1  LIG1       -0.0001
      3 C          -2.5039   -0.8004    0.0001 C.ar    1  LIG1       -0.0547
      4 C          -3.2580    0.3743   -0.0001 C.ar    1  LIG1       -0.0353
      5 C          -4.6612    0.2715   -0.0003 C.ar    1  LIG1        0.0799
      6 N          -5.3207   -0.9034   -0.0001 N.ar    1  LIG1       -0.2129
      7 H          -1.4054   -0.7607   -0.0009 H       1  LIG1        0.0620
      8 H          -2.5135   -3.1487    0.0004 H       1  LIG1        0.0671
      9 O          -5.2431   -3.1437    0.0002 O.3     1  LIG1       -0.4924
     10 H          -4.6298   -3.8823    0.0002 H       1  LIG1        0.2937
     11 H          -2.6846    1.5410   -0.0003 H       1  LIG1        0.0639
     12 C          -6.8088    1.2233   -0.0003 C.ar    1  LIG1        0.2217
     13 C          -5.4065    1.3366   -0.0004 C.ar    1  LIG1        0.0618
     14 C          -4.8408    2.6129   -0.0003 C.ar    1  LIG1       -0.0460
     15 C          -5.6871    3.7231   -0.0003 C.ar    1  LIG1       -0.0427
     16 C          -7.0774    3.5076   -0.0004 C.ar    1  LIG1        0.0314
     17 N          -7.6401    2.2834   -0.0003 N.ar    1  LIG1       -0.2209
     18 H          -3.7491    2.7410   -0.0014 H       1  LIG1        0.0626
     19 H          -7.9061    4.5092   -0.0003 H       1  LIG1        0.0831
     20 O          -7.3823    0.0566   -0.0003 O.3     1  LIG1       -0.4919
     21 H          -6.7115   -0.6302   -0.0003 H       1  LIG1        0.2937
     22 H          -5.2095    4.9322   -0.0004 H       1  LIG1        0.0633
@<TRIPOS>BOND
     1    18    14    1
     2     7     3    1
     3    13     5    1
     4    13    12   ar
     5    13    14   ar
     6    16    17   ar
     7    16    19    1
     8    16    15   ar
     9    22    15    1
    10     5     6   ar
    11     5     4   ar
    12    11     4    1
    13    12    20    1
    14    12    17   ar
    15    14    15   ar
    16    20    21    1
    17     6     1   ar
    18     4     3   ar
    19     1     2   ar
    20     1     9    1
    21     3     2   ar
    22     2     8    1
    23     9    10    1
