@<TRIPOS>MOLECULE
mol_data/noopt/geoms/mol2/6fa6fa-6fa-6fa-.out
 42 45 0 0 0
SMALL
GASTEIGER

@<TRIPOS>ATOM
      1 C          -4.5775   -2.0270    0.0001 C.ar    1  LIG1        0.2128
      2 C          -3.1706   -2.0270    0.0001 C.ar    1  LIG1       -0.0001
      3 C          -2.5039   -0.8004    0.0001 C.ar    1  LIG1       -0.0547
      4 C          -3.2580    0.3743   -0.0001 C.ar    1  LIG1       -0.0353
      5 C          -4.6612    0.2715   -0.0003 C.ar    1  LIG1        0.0799
      6 N          -5.3207   -0.9034   -0.0001 N.ar    1  LIG1       -0.2129
      7 H          -1.4054   -0.7607   -0.0009 H       1  LIG1        0.0620
      8 H          -2.5135   -3.1487    0.0004 H       1  LIG1        0.0671
      9 O          -5.2431   -3.1437    0.0002 O.3     1  LIG1       -0.4924
     10 H          -4.6298   -3.8823    0.0002 H       1  LIG1        0.2937
     11 H          -2.6846    1.5410   -0.0003 H       1  LIG1        0.0639
     12 C          -4.8196    2.6153   -0.0003 C.ar    1  LIG1        0.2223
     13 C          -5.4065    1.3366   -0.0004 C.ar    1  LIG1        0.0618
     14 C          -6.7994    1.2424   -0.0003 C.ar    1  LIG1       -0.0454
     15 C          -7.5524    2.4178   -0.0003 C.ar    1  LIG1       -0.0347
     16 C          -6.8736    3.6502   -0.0004 C.ar    1  LIG1        0.0799
     17 N          -5.5307    3.7594   -0.0003 N.ar    1  LIG1       -0.2123
     18 H          -7.2937    0.2606   -0.0014 H       1  LIG1        0.0626
     19 O          -3.5270    2.7543   -0.0003 O.3     1  LIG1       -0.4919
     20 H          -3.3053    3.6884   -0.0003 H       1  LIG1        0.2937
     21 H          -8.8520    2.3834   -0.0004 H       1  LIG1        0.0639
     22 C          -6.8427    5.9991   -0.0000 C.ar    1  LIG1        0.2223
     23 C          -7.5307    4.7719   -0.0003 C.ar    1  LIG1        0.0618
     24 C          -8.9267    4.7902   -0.0001 C.ar    1  LIG1       -0.0454
     25 C          -9.5826    6.0224    0.0002 C.ar    1  LIG1       -0.0347
     26 C          -8.8067    7.1961    0.0002 C.ar    1  LIG1        0.0799
     27 N          -7.4594    7.1968    0.0002 N.ar    1  LIG1       -0.2123
     28 H          -9.4985    3.8514   -0.0012 H       1  LIG1        0.0626
     29 O          -5.5432    6.0336   -0.0001 O.3     1  LIG1       -0.4919
     30 H          -5.2469    6.9467   -0.0001 H       1  LIG1        0.2937
     31 H         -10.8807    6.0928    0.0002 H       1  LIG1        0.0639
     32 C          -8.5867    9.5349    0.0008 C.ar    1  LIG1        0.2217
     33 C          -9.3714    8.3671    0.0005 C.ar    1  LIG1        0.0618
     34 C         -10.7613    8.4977    0.0008 C.ar    1  LIG1       -0.0460
     35 C         -11.3158    9.7788    0.0012 C.ar    1  LIG1       -0.0427
     36 C         -10.4479   10.8862    0.0013 C.ar    1  LIG1        0.0314
     37 N          -9.1049   10.7784    0.0012 N.ar    1  LIG1       -0.2209
     38 H         -11.4069    7.6081   -0.0005 H       1  LIG1        0.0626
     39 H         -10.9164   12.0988    0.0018 H       1  LIG1        0.0831
     40 O          -7.2886    9.4646    0.0006 O.3     1  LIG1       -0.4919
     41 H          -6.9197   10.3509    0.0006 H       1  LIG1        0.2937
     42 H         -12.6040    9.9535    0.0014 H       1  LIG1        0.0633
@<TRIPOS>BOND
     1    18    14    1
     2    28    24    1
     3     7     3    1
     4    38    34    1
     5    13    14   ar
     6    13     5    1
     7    13    12   ar
     8    21    15    1
     9    16    15   ar
    10    16    23    1
    11    16    17   ar
    12    14    15   ar
    13     5     6   ar
    14     5     4   ar
    15    11     4    1
    16    23    24   ar
    17    23    22   ar
    18    12    17   ar
    19    12    19    1
    20    19    20    1
    21    30    29    1
    22    29    22    1
    23     6     1   ar
    24     4     3   ar
    25    24    25   ar
    26    22    27   ar
    27     1     2   ar
    28     1     9    1
    29     3     2   ar
    30     2     8    1
    31    25    26   ar
    32    25    31    1
    33    26    27   ar
    34    26    33    1
    35     9    10    1
    36    33    34   ar
    37    33    32   ar
    38    41    40    1
    39    40    32    1
    40    34    35   ar
    41    32    37   ar
    42    35    36   ar
    43    35    42    1
    44    37    36   ar
    45    36    39    1
