@<TRIPOS>MOLECULE
mol_data/noopt/geoms/mol2/6fa6fa6fa6fa.out
 42 45 0 0 0
SMALL
GASTEIGER

@<TRIPOS>ATOM
      1 C          -4.5775   -2.0270    0.0001 C.ar    1  LIG1        0.2128
      2 C          -3.1706   -2.0270    0.0001 C.ar    1  LIG1       -0.0001
      3 C          -2.5039   -0.8004    0.0001 C.ar    1  LIG1       -0.0547
      4 C          -3.2580    0.3743   -0.0001 C.ar    1  LIG1       -0.0353
      5 C          -4.6612    0.2715   -0.0003 C.ar    1  LIG1        0.0799
      6 N          -5.3207   -0.9034   -0.0001 N.ar    1  LIG1       -0.2129
      7 H          -1.4054   -0.7607   -0.0009 H       1  LIG1        0.0620
      8 H          -2.5135   -3.1487    0.0004 H       1  LIG1        0.0671
      9 O          -5.2431   -3.1437    0.0002 O.3     1  LIG1       -0.4924
     10 H          -4.6298   -3.8823    0.0002 H       1  LIG1        0.2937
     11 H          -2.6846    1.5410   -0.0003 H       1  LIG1        0.0639
     12 C          -6.8088    1.2233   -0.0003 C.ar    1  LIG1        0.2223
     13 C          -5.4065    1.3366   -0.0004 C.ar    1  LIG1        0.0618
     14 C          -4.8408    2.6129   -0.0003 C.ar    1  LIG1       -0.0454
     15 C          -5.6871    3.7231   -0.0003 C.ar    1  LIG1       -0.0347
     16 C          -7.0774    3.5076   -0.0004 C.ar    1  LIG1        0.0799
     17 N          -7.6401    2.2834   -0.0003 N.ar    1  LIG1       -0.2123
     18 H          -3.7491    2.7410   -0.0014 H       1  LIG1        0.0626
     19 O          -7.3823    0.0566   -0.0003 O.3     1  LIG1       -0.4919
     20 H          -6.7115   -0.6302   -0.0003 H       1  LIG1        0.2937
     21 H          -5.2095    4.9322   -0.0004 H       1  LIG1        0.0639
     22 C          -9.2948    4.2833   -0.0001 C.ar    1  LIG1        0.2223
     23 C          -7.9061    4.5092   -0.0003 C.ar    1  LIG1        0.0618
     24 C          -7.4450    5.8270   -0.0001 C.ar    1  LIG1       -0.0454
     25 C          -8.3780    6.8653    0.0002 C.ar    1  LIG1       -0.0347
     26 C          -9.7465    6.5385    0.0002 C.ar    1  LIG1        0.0799
     27 N         -10.2087    5.2730    0.0002 N.ar    1  LIG1       -0.2123
     28 H          -6.3672    6.0425   -0.0012 H       1  LIG1        0.0626
     29 O          -9.7724    3.0742   -0.0002 O.3     1  LIG1       -0.4919
     30 H          -9.0485    2.4437   -0.0002 H       1  LIG1        0.2937
     31 H          -7.9994    8.1090    0.0002 H       1  LIG1        0.0639
     32 C         -12.0191    7.1331    0.0008 C.ar    1  LIG1        0.2217
     33 C         -10.6531    7.4702    0.0005 C.ar    1  LIG1        0.0618
     34 C         -10.2997    8.8208    0.0008 C.ar    1  LIG1       -0.0460
     35 C         -11.3132    9.7806    0.0012 C.ar    1  LIG1       -0.0427
     36 C         -12.6510    9.3446    0.0013 C.ar    1  LIG1        0.0314
     37 N         -13.0098    8.0460    0.0012 N.ar    1  LIG1       -0.2209
     38 H          -9.2427    9.1225   -0.0004 H       1  LIG1        0.0626
     39 H         -13.6297   10.2002    0.0018 H       1  LIG1        0.0831
     40 O         -12.3978    5.8895    0.0006 O.3     1  LIG1       -0.4919
     41 H         -11.6254    5.3193    0.0006 H       1  LIG1        0.2937
     42 H         -11.0360   11.0507    0.0014 H       1  LIG1        0.0633
@<TRIPOS>BOND
     1    18    14    1
     2    28    24    1
     3     7     3    1
     4    38    34    1
     5    13     5    1
     6    13    12   ar
     7    13    14   ar
     8    16    17   ar
     9    16    23    1
    10    16    15   ar
    11    21    15    1
    12     5     6   ar
    13     5     4   ar
    14    11     4    1
    15    12    19    1
    16    12    17   ar
    17    14    15   ar
    18    19    20    1
    19    23    22   ar
    20    23    24   ar
    21    30    29    1
    22    29    22    1
    23     6     1   ar
    24     4     3   ar
    25    22    27   ar
    26    24    25   ar
    27     1     2   ar
    28     1     9    1
    29     3     2   ar
    30     2     8    1
    31    27    26   ar
    32    26    25   ar
    33    26    33    1
    34    25    31    1
    35     9    10    1
    36    33    32   ar
    37    33    34   ar
    38    41    40    1
    39    40    32    1
    40    32    37   ar
    41    34    35   ar
    42    37    36   ar
    43    35    36   ar
    44    35    42    1
    45    36    39    1
