@<TRIPOS>MOLECULE
mol_data/noopt/geoms/mol2/6fd13df4ai-4di-.out
 50 54 0 0 0
SMALL
GASTEIGER

@<TRIPOS>ATOM
      1 C          -4.5775   -2.0270    0.0001 C.ar    1  LIG1        0.2128
      2 C          -3.1706   -2.0270    0.0001 C.ar    1  LIG1        0.0002
      3 C          -2.5039   -0.8004    0.0001 C.ar    1  LIG1       -0.0495
      4 C          -3.2580    0.3743   -0.0001 C.ar    1  LIG1        0.0078
      5 C          -4.6612    0.2715   -0.0003 C.ar    1  LIG1        0.0965
      6 N          -5.3207   -0.9034   -0.0001 N.ar    1  LIG1       -0.2112
      7 H          -1.4054   -0.7607   -0.0009 H       1  LIG1        0.0623
      8 H          -2.5135   -3.1487    0.0004 H       1  LIG1        0.0671
      9 O          -5.2431   -3.1437    0.0002 O.3     1  LIG1       -0.4924
     10 H          -4.6298   -3.8823    0.0002 H       1  LIG1        0.2937
     11 N          -2.1789    2.5700   -0.0005 N.3     1  LIG1       -0.1262
     12 C          -2.6846    1.5410   -0.0003 C.3     1  LIG1        0.1365
     13 C          -5.4065    1.3366   -0.0004 C.ar    1  LIG1        0.0747
     14 C          -5.0646    2.6523   -0.0008 C.ar    1  LIG1        0.0490
     15 C          -6.2797    3.4100    0.0004 C.ar    1  LIG1        0.1478
     16 C          -7.3108    2.5240   -0.0003 C.ar    1  LIG1        0.0893
     17 N          -6.7806    1.2535   -0.0003 N.ar    1  LIG1       -0.3498
     18 H          -7.3066    0.4100   -0.0008 H       1  LIG1        0.1661
     19 N          -2.7897    3.5528   -0.0006 N.3     1  LIG1       -0.1261
     20 C          -3.8559    3.1308   -0.0007 C.3     1  LIG1        0.1401
     21 O          -6.3821    4.7060    0.0014 O.3     1  LIG1       -0.5043
     22 H          -7.3095    4.9542    0.0017 H       1  LIG1        0.2922
     23 C          -9.1008    4.0404    0.0226 C.ar    1  LIG1       -0.0519
     24 C         -10.4995    4.2043    0.0237 C.ar    1  LIG1       -0.0531
     25 C          -8.5952    2.7244    0.0002 C.ar    1  LIG1        0.0022
     26 C         -11.3587    3.1080    0.0028 C.ar    1  LIG1       -0.0137
     27 H         -10.9109    5.2111    0.0409 H       1  LIG1        0.0624
     28 C          -9.4525    1.6296   -0.0206 C.ar    1  LIG1       -0.0490
     29 C         -10.8392    1.8131   -0.0195 C.ar    1  LIG1       -0.0421
     30 H          -9.0382    0.6248   -0.0375 H       1  LIG1        0.0627
     31 H          -8.3503    5.1017    0.0423 H       1  LIG1        0.0624
     32 C         -11.6359    0.7856   -0.0389 C.3     1  LIG1       -0.0391
     33 H         -11.1686   -0.0375    0.4602 H       1  LIG1        0.0278
     34 H         -11.8452    0.5156   -1.0529 H       1  LIG1        0.0278
     35 H         -12.5494    1.0333    0.4601 H       1  LIG1        0.0278
     36 C         -13.1633    4.6069    0.0273 C.ar    1  LIG1        0.0595
     37 C         -14.5636    4.7573    0.0296 C.ar    1  LIG1       -0.0435
     38 C         -12.6450    3.2959    0.0044 C.ar    1  LIG1       -0.0000
     39 C         -15.4121    3.6527    0.0093 C.ar    1  LIG1       -0.0576
     40 H         -14.9847    5.7600    0.0473 H       1  LIG1        0.0631
     41 C         -13.4917    2.1928   -0.0159 C.ar    1  LIG1       -0.0499
     42 C         -14.8800    2.3629   -0.0137 C.ar    1  LIG1       -0.0498
     43 H         -13.0676    1.1921   -0.0333 H       1  LIG1        0.0627
     44 H         -16.7003    3.8281    0.0119 H       1  LIG1        0.0621
     45 N         -11.7705    6.6180    0.0636 N.1     1  LIG1       -0.1909
     46 C         -12.4232    5.6755    0.0466 C.1     1  LIG1        0.0998
     47 C         -15.6667    1.3277   -0.0325 C.3     1  LIG1       -0.0397
     48 H         -15.1914    0.5093    0.4667 H       1  LIG1        0.0278
     49 H         -15.8737    1.0553   -1.0464 H       1  LIG1        0.0278
     50 H         -16.5825    1.5666    0.4667 H       1  LIG1        0.0278
@<TRIPOS>BOND
     1    34    32    1
     2    49    47    1
     3    32    29    1
     4    32    35    1
     5    32    33    1
     6    30    28    1
     7    43    41    1
     8    47    42    1
     9    47    50    1
    10    47    48    1
    11    28    29   ar
    12    28    25   ar
    13    29    26   ar
    14    41    42   ar
    15    41    38   ar
    16    42    39   ar
    17     7     3    1
    18    14    20    1
    19    14    13   ar
    20    14    15   ar
    21    18    17    1
    22    20    19    1
    23    19    11    1
    24    11    12    1
    25    13     5    1
    26    13    17   ar
    27    12     4    1
    28     5     4   ar
    29     5     6   ar
    30    17    16   ar
    31    16    25    1
    32    16    15   ar
    33     4     3   ar
    34     6     1   ar
    35     1     2   ar
    36     1     9    1
    37     2     3   ar
    38     2     8    1
    39     9    10    1
    40    25    23   ar
    41    15    21    1
    42    21    22    1
    43    26    38    1
    44    26    24   ar
    45    38    36   ar
    46    39    44    1
    47    39    37   ar
    48    23    24   ar
    49    23    31    1
    50    24    27    1
    51    36    37   ar
    52    36    46    1
    53    37    40    1
    54    46    45    3
