@<TRIPOS>MOLECULE
mol_data/noopt/geoms/mol2/6fd13fi(130)6af(260)12dh(290).out
 45 48 0 0 0
SMALL
GASTEIGER

@<TRIPOS>ATOM
      1 C          -4.5775   -2.0270    0.0001 C.ar    1  LIG1        0.2129
      2 C          -3.1706   -2.0270    0.0001 C.ar    1  LIG1        0.0011
      3 C          -2.5039   -0.8004    0.0001 C.ar    1  LIG1       -0.0372
      4 C          -3.2580    0.3743   -0.0001 C.ar    1  LIG1        0.0795
      5 C          -4.6612    0.2715   -0.0003 C.ar    1  LIG1        0.1118
      6 N          -5.3207   -0.9034   -0.0001 N.ar    1  LIG1       -0.2101
      7 H          -1.4054   -0.7607   -0.0009 H       1  LIG1        0.0633
      8 H          -2.5135   -3.1487    0.0004 H       1  LIG1        0.0671
      9 O          -5.2431   -3.1437    0.0002 O.3     1  LIG1       -0.4924
     10 H          -4.6298   -3.8823    0.0002 H       1  LIG1        0.2937
     11 N          -2.1789    2.5700   -0.0005 N.1     1  LIG1       -0.1908
     12 C          -2.6846    1.5410   -0.0003 C.1     1  LIG1        0.1014
     13 C          -5.4065    1.3366   -0.0004 C.ar    1  LIG1        0.1090
     14 C          -6.4830    1.6599    0.7642 C.ar    1  LIG1        0.1470
     15 C          -6.9293    2.9555    0.3485 C.ar    1  LIG1        0.0170
     16 C          -6.1049    3.3678   -0.6507 C.ar    1  LIG1        0.0550
     17 N          -5.1714    2.3795   -0.8678 N.ar    1  LIG1       -0.3497
     18 H          -4.4429    2.4137   -1.5431 H       1  LIG1        0.1661
     19 O          -7.0087    0.9247    1.6987 O.3     1  LIG1       -0.5043
     20 H          -6.4022    0.2172    1.9291 H       1  LIG1        0.2922
     21 C          -7.9365    3.6187    0.8348 C.3     1  LIG1       -0.0342
     22 H          -8.5357    2.9671    1.4361 H       1  LIG1        0.0279
     23 H          -8.5280    4.0080    0.0326 H       1  LIG1        0.0279
     24 H          -7.5748    4.4265    1.4360 H       1  LIG1        0.0279
     25 C          -5.8919    5.7064   -0.7117 C.ar    1  LIG1        0.0377
     26 C          -6.1040    4.4675   -1.3438 C.ar    1  LIG1        0.0203
     27 C          -6.3116    4.4503   -2.7243 C.ar    1  LIG1       -0.0074
     28 C          -6.3007    5.6601   -3.4206 C.ar    1  LIG1        0.1464
     29 C          -6.0803    6.8480   -2.6996 C.ar    1  LIG1        0.1485
     30 N          -5.8781    6.8829   -1.3679 N.ar    1  LIG1       -0.2475
     31 H          -6.4817    3.5015   -3.2527 H       1  LIG1        0.0662
     32 H          -5.6939    5.7737    0.5713 H       1  LIG1        0.0836
     33 O          -6.4892    5.6972   -4.7064 O.3     1  LIG1       -0.5045
     34 H          -6.7105    4.8185   -5.0233 H       1  LIG1        0.2922
     35 C          -6.0610    7.9991   -3.3033 C.ar    1  LIG1        0.1756
     36 C          -5.6822    8.4488   -4.5512 C.ar    1  LIG1        0.1196
     37 C          -5.9262    9.8761   -4.5695 C.ar    1  LIG1        0.0811
     38 C          -6.4382   10.2040   -3.3309 C.ar    1  LIG1        0.1145
     39 O          -6.5309    9.0634   -2.5325 O.2     1  LIG1       -0.4580
     40 H          -6.8415   11.2976   -2.7553 H       1  LIG1        0.1049
     41 N          -4.7718    7.1352   -6.4036 N.1     1  LIG1       -0.1907
     42 C          -5.1984    7.7508   -5.5355 C.1     1  LIG1        0.1049
     43 N          -5.6979   10.6710   -5.5725 N.pl3   1  LIG1       -0.3545
     44 H          -4.9550   10.2998   -6.1295 H       1  LIG1        0.1424
     45 H          -6.5245   10.7506   -6.1296 H       1  LIG1        0.1424
@<TRIPOS>BOND
     1    41    42    3
     2    45    43    1
     3    44    43    1
     4    43    37    1
     5    42    36    1
     6    34    33    1
     7    33    28    1
     8    37    36   ar
     9    37    38   ar
    10    36    35   ar
    11    28    27   ar
    12    28    29   ar
    13    38    40    1
    14    38    39   ar
    15    35    29    1
    16    35    39   ar
    17    31    27    1
    18    27    26   ar
    19    29    30   ar
    20    18    17    1
    21    30    25   ar
    22    26    25   ar
    23    26    16    1
    24    17    16   ar
    25    17    13   ar
    26    25    32    1
    27    16    15   ar
    28     7     3    1
    29    11    12    3
    30    13     5    1
    31    13    14   ar
    32    12     4    1
    33     5     6   ar
    34     5     4   ar
    35     6     1   ar
    36     4     3   ar
    37     1     2   ar
    38     1     9    1
    39     3     2   ar
    40     2     8    1
    41     9    10    1
    42    23    21    1
    43    15    14   ar
    44    15    21    1
    45    14    19    1
    46    21    24    1
    47    21    22    1
    48    19    20    1
