@<TRIPOS>MOLECULE
mol_data/noopt/geoms/mol2/6fd12di13hi12ie.out
 49 53 0 0 0
SMALL
GASTEIGER

@<TRIPOS>ATOM
      1 C          -4.5775   -2.0270    0.0001 C.ar    1  LIG1        0.2129
      2 C          -3.1706   -2.0270    0.0001 C.ar    1  LIG1        0.0002
      3 C          -2.5039   -0.8004    0.0001 C.ar    1  LIG1       -0.0494
      4 C          -3.2580    0.3743   -0.0001 C.ar    1  LIG1        0.0094
      5 C          -4.6612    0.2715   -0.0003 C.ar    1  LIG1        0.1153
      6 N          -5.3207   -0.9034   -0.0001 N.ar    1  LIG1       -0.2096
      7 H          -1.4054   -0.7607   -0.0009 H       1  LIG1        0.0623
      8 H          -2.5135   -3.1487    0.0004 H       1  LIG1        0.0671
      9 O          -5.2431   -3.1437    0.0002 O.3     1  LIG1       -0.4924
     10 H          -4.6298   -3.8823    0.0002 H       1  LIG1        0.2937
     11 N          -2.1789    2.5700   -0.0005 N.3     1  LIG1       -0.1262
     12 C          -2.6846    1.5410   -0.0003 C.3     1  LIG1        0.1366
     13 C          -5.4065    1.3366   -0.0004 C.ar    1  LIG1        0.1597
     14 C          -5.1776    2.6970   -0.0005 C.ar    1  LIG1        0.0310
     15 C          -6.4770    3.3362   -0.0006 C.ar    1  LIG1        0.0027
     16 C          -7.4141    2.3236   -0.0007 C.ar    1  LIG1        0.1569
     17 O          -6.7786    1.0814   -0.0006 O.2     1  LIG1       -0.4511
     18 N          -3.0212    3.8527   -0.0003 N.3     1  LIG1       -0.1261
     19 C          -4.0318    3.3111   -0.0004 C.3     1  LIG1        0.1384
     20 C          -6.6905    4.6189   -0.0007 C.3     1  LIG1       -0.0357
     21 H          -7.6109    4.8273    0.5037 H       1  LIG1        0.0279
     22 H          -6.7492    4.9707   -1.0095 H       1  LIG1        0.0279
     23 H          -5.8873    5.1142    0.5037 H       1  LIG1        0.0279
     24 C          -8.7127    2.2633   -0.0007 C.ar    1  LIG1        0.1041
     25 C          -9.6417    3.2556    0.0155 C.ar    1  LIG1        0.0569
     26 C         -10.9317    2.6340    0.0077 C.ar    1  LIG1       -0.0008
     27 C         -10.7343    1.2891   -0.0146 C.ar    1  LIG1        0.0876
     28 N          -9.3772    1.0578   -0.0194 N.ar    1  LIG1       -0.3476
     29 H          -8.9457    0.1625   -0.0346 H       1  LIG1        0.1661
     30 N          -9.3996    4.5328    0.0359 N.pl3   1  LIG1       -0.3560
     31 H          -8.5340    4.7154   -0.4302 H       1  LIG1        0.1424
     32 H         -10.1384    5.0195   -0.4302 H       1  LIG1        0.1424
     33 C         -12.0818    3.2405    0.0194 C.3     1  LIG1       -0.0358
     34 H         -12.8008    2.6320    0.5270 H       1  LIG1        0.0279
     35 H         -12.4054    3.4110   -0.9862 H       1  LIG1        0.0279
     36 H         -11.9857    4.1775    0.5270 H       1  LIG1        0.0279
     37 C         -11.5905    0.3110   -0.0292 C.ar    1  LIG1        0.1553
     38 C         -12.9661    0.2084   -0.0402 C.ar    1  LIG1        0.0121
     39 C         -13.2764   -1.2060   -0.0544 C.ar    1  LIG1        0.0659
     40 C         -12.0692   -1.8741   -0.0512 C.ar    1  LIG1        0.1082
     41 O         -11.0149   -0.9603   -0.0358 O.2     1  LIG1       -0.4599
     42 H         -11.7004   -3.1207   -0.0590 H       1  LIG1        0.1042
     43 C         -13.8363    1.1745   -0.0383 C.3     1  LIG1       -0.0349
     44 H         -14.7237    0.8544    0.4666 H       1  LIG1        0.0279
     45 H         -14.0760    1.4406   -1.0467 H       1  LIG1        0.0279
     46 H         -13.4254    2.0237    0.4665 H       1  LIG1        0.0279
     47 C         -14.4706   -1.7196   -0.0675 C.1     1  LIG1       -0.0662
     48 C         -15.5740   -2.1941   -0.0796 C.1     1  LIG1       -0.1138
     49 H         -16.5569   -2.6169   -0.0904 H       1  LIG1        0.1232
@<TRIPOS>BOND
     1    45    43    1
     2    22    20    1
     3    35    33    1
     4    32    30    1
     5    31    30    1
     6    49    48    1
     7    48    47    3
     8    47    39    1
     9    42    40    1
    10    39    40   ar
    11    39    38   ar
    12    40    41   ar
    13    38    43    1
    14    38    37   ar
    15    43    46    1
    16    43    44    1
    17    41    37   ar
    18    29    28    1
    19    37    27    1
    20    28    27   ar
    21    28    24   ar
    22    27    26   ar
    23     7     3    1
    24    24    16    1
    25    24    25   ar
    26    20    15    1
    27    20    23    1
    28    20    21    1
    29    16    17   ar
    30    16    15   ar
    31    17    13   ar
    32    15    14   ar
    33    14    13   ar
    34    14    19    1
    35    11    12    1
    36    11    18    1
    37    13     5    1
    38    19    18    1
    39    12     4    1
    40     5     6   ar
    41     5     4   ar
    42     6     1   ar
    43     4     3   ar
    44     1     2   ar
    45     1     9    1
    46     3     2   ar
    47     2     8    1
    48     9    10    1
    49    26    25   ar
    50    26    33    1
    51    25    30    1
    52    33    36    1
    53    33    34    1
