@<TRIPOS>MOLECULE
mol_data/noopt/geoms/mol2/6fd4fe-6ii13lh.out
 55 54 0 0 0
SMALL
GASTEIGER

@<TRIPOS>ATOM
      1 C          -4.5775   -2.0270    0.0001 C.ar    1  LIG1        0.2129
      2 C          -3.1706   -2.0270    0.0001 C.ar    1  LIG1        0.0011
      3 C          -2.5039   -0.8004    0.0001 C.ar    1  LIG1       -0.0372
      4 C          -3.2580    0.3743   -0.0001 C.ar    1  LIG1        0.0780
      5 C          -4.6612    0.2715   -0.0003 C.ar    1  LIG1        0.0956
      6 N          -5.3207   -0.9034   -0.0001 N.ar    1  LIG1       -0.2116
      7 H          -1.4054   -0.7607   -0.0009 H       1  LIG1        0.0633
      8 H          -2.5135   -3.1487    0.0004 H       1  LIG1        0.0671
      9 O          -5.2431   -3.1437    0.0002 O.3     1  LIG1       -0.4924
     10 H          -4.6298   -3.8823    0.0002 H       1  LIG1        0.2937
     11 N          -2.1789    2.5700   -0.0005 N.1     1  LIG1       -0.1908
     12 C          -2.6846    1.5410   -0.0003 C.1     1  LIG1        0.1013
     13 C          -4.8078    2.6129    0.0216 C.ar    1  LIG1        0.1266
     14 C          -5.6586    3.7351    0.0221 C.ar    1  LIG1       -0.0118
     15 C          -5.4065    1.3366   -0.0004 C.ar    1  LIG1        0.0434
     16 C          -7.0444    3.5952    0.0010 C.ar    1  LIG1       -0.0128
     17 H          -5.2175    4.7293    0.0391 H       1  LIG1        0.0660
     18 C          -6.7900    1.1963   -0.0215 C.ar    1  LIG1       -0.0450
     19 C          -7.6183    2.3234   -0.0211 C.ar    1  LIG1       -0.0351
     20 H          -7.2275    0.2014   -0.0382 H       1  LIG1        0.0628
     21 O          -3.5225    2.8070    0.0417 O.3     1  LIG1       -0.5061
     22 H          -3.3409    3.7497    0.0466 H       1  LIG1        0.2922
     23 C          -8.9109    2.1862   -0.0407 C.3     1  LIG1       -0.0048
     24 C         -10.1052    2.0593   -0.0588 C.3     1  LIG1       -0.0263
     25 H         -11.1691    1.9463   -0.0750 H       1  LIG1        0.0313
     26 C          -9.2012    4.5261    0.0026 C.3     1  LIG1        0.1168
     27 C          -7.8001    4.6530    0.0019 C.2     1  LIG1       -0.0133
     28 C          -7.2468    5.9348    0.0027 C.2     1  LIG1       -0.0691
     29 C          -8.1038    7.0367    0.0038 C.3     1  LIG1        0.0216
     30 C          -9.4920    6.8077    0.0042 C.2     1  LIG1        0.1136
     31 N         -10.0428    5.5781    0.0038 N.2     1  LIG1       -0.2655
     32 H          -6.1563    6.0735    0.0011 H       1  LIG1        0.0582
     33 C          -9.7635    3.3536    0.0021 C.3     1  LIG1       -0.0183
     34 H          -9.1300    2.6541    0.5064 H       1  LIG1        0.0358
     35 H          -9.9175    3.0323   -1.0069 H       1  LIG1        0.0294
     36 H         -10.7056    3.4097    0.5063 H       1  LIG1        0.0294
     37 C          -7.6379    8.2506    0.0043 C.3     2  LIG2       -0.0681
     38 H          -8.3258    8.8965    0.5089 H       2  LIG2        0.0265
     39 H          -7.5100    8.5840   -1.0044 H       3  UNK3        0.0000
     40 H          -6.6945    8.2704    0.5088 H       1  LIG1        0.0227
     41 C         -10.3304    7.8012    0.0054 C.ar    1  LIG1        0.1159
     42 C         -10.1086    9.1424    0.0059 C.ar    1  LIG1        0.2260
     43 C         -11.3871    9.7873    0.0084 C.ar    1  LIG1        0.0902
     44 C         -12.3340    8.8119    0.0076 C.ar    1  LIG1        0.0269
     45 N         -11.6914    7.5944    0.0062 N.ar    1  LIG1       -0.3547
     46 H         -12.1391    6.7069    0.0053 H       1  LIG1        0.1655
     47 H         -13.6313    8.8956    0.0089 H       1  LIG1        0.0827
     48 O          -8.9479    9.7280    0.0057 O.3     1  LIG1       -0.2836
     49 C          -7.9146    8.7395    0.0055 C.3     4  LIG4       -0.0531
     50 H          -6.9595    9.2219    0.0052 H       2  LIG2        0.0265
     51 H          -8.0052    8.1285    0.8793 H       1  LIG1        0.0227
     52 H          -8.0057    8.1283   -0.8680 H       1  LIG1        0.0227
     53 N         -11.6060   11.0688    0.0105 N.pl3   1  LIG1       -0.3538
     54 H         -10.8574   11.5356   -0.4604 H       1  LIG1        0.1425
     55 H         -12.4670   11.2606   -0.4604 H       1  LIG1        0.1425
@<TRIPOS>BOND
     1    35    33    1
     2    52    37    1
     3    55    53    1
     4    54    53    1
     5    25    24    1
     6    24    23    1
     7    23    19    1
     8    23    34    1
     9    20    18    1
    10    18    19   ar
    11    18    15   ar
    12    19    16   ar
    13     7     3    1
    14    11    12    3
    15    15     5    1
    16    15    13   ar
    17    12     4    1
    18     5     6   ar
    19     5     4   ar
    20     6     1   ar
    21     4     3   ar
    22     1     2   ar
    23     1     9    1
    24     2     3   ar
    25     2     8    1
    26     9    10    1
    27    16    27    1
    28    16    14   ar
    29    32    28    1
    30    27    26    1
    31    27    28    2
    32    33    26    1
    33    33    36    1
    34    26    31    1
    35    28    29    1
    36    31    30    2
    37    30    41    1
    38    37    40    1
    39    37    51    1
    40    50    49    1
    41    46    45    1
    42    41    42   ar
    43    41    45   ar
    44    49    38    1
    45    48    42    1
    46    42    43   ar
    47    45    44   ar
    48    44    43   ar
    49    44    47    1
    50    43    53    1
    51    13    14   ar
    52    13    21    1
    53    14    17    1
    54    21    22    1
