@<TRIPOS>MOLECULE
mol_data/noopt/geoms/mol2/6fd6fd6fd.out
 35 37 0 0 0
SMALL
GASTEIGER

@<TRIPOS>ATOM
      1 C          -4.5775   -2.0270    0.0001 C.ar    1  LIG1        0.2129
      2 C          -3.1706   -2.0270    0.0001 C.ar    1  LIG1        0.0011
      3 C          -2.5039   -0.8004    0.0001 C.ar    1  LIG1       -0.0372
      4 C          -3.2580    0.3743   -0.0001 C.ar    1  LIG1        0.0781
      5 C          -4.6612    0.2715   -0.0003 C.ar    1  LIG1        0.0972
      6 N          -5.3207   -0.9034   -0.0001 N.ar    1  LIG1       -0.2116
      7 H          -1.4054   -0.7607   -0.0009 H       1  LIG1        0.0633
      8 H          -2.5135   -3.1487    0.0004 H       1  LIG1        0.0671
      9 O          -5.2431   -3.1437    0.0002 O.3     1  LIG1       -0.4924
     10 H          -4.6298   -3.8823    0.0002 H       1  LIG1        0.2937
     11 N          -2.1789    2.5700   -0.0005 N.1     1  LIG1       -0.1908
     12 C          -2.6846    1.5410   -0.0003 C.1     1  LIG1        0.1013
     13 C          -6.8088    1.2233   -0.0003 C.ar    1  LIG1        0.2224
     14 C          -5.4065    1.3366   -0.0004 C.ar    1  LIG1        0.0643
     15 C          -4.8408    2.6129   -0.0003 C.ar    1  LIG1       -0.0279
     16 C          -5.6871    3.7231   -0.0003 C.ar    1  LIG1        0.0787
     17 C          -7.0774    3.5076   -0.0004 C.ar    1  LIG1        0.0973
     18 N          -7.6401    2.2834   -0.0003 N.ar    1  LIG1       -0.2110
     19 H          -3.7491    2.7410   -0.0014 H       1  LIG1        0.0639
     20 O          -7.3823    0.0566   -0.0003 O.3     1  LIG1       -0.4919
     21 H          -6.7115   -0.6302   -0.0003 H       1  LIG1        0.2937
     22 N          -4.7883    5.9986   -0.0004 N.1     1  LIG1       -0.1908
     23 C          -5.2095    4.9322   -0.0004 C.1     1  LIG1        0.1013
     24 C          -9.2948    4.2833   -0.0001 C.ar    1  LIG1        0.2218
     25 C          -7.9061    4.5092   -0.0003 C.ar    1  LIG1        0.0643
     26 C          -7.4450    5.8270   -0.0001 C.ar    1  LIG1       -0.0285
     27 C          -8.3780    6.8653    0.0002 C.ar    1  LIG1        0.0707
     28 C          -9.7465    6.5385    0.0002 C.ar    1  LIG1        0.0488
     29 N         -10.2087    5.2730    0.0002 N.ar    1  LIG1       -0.2196
     30 H          -6.3672    6.0425   -0.0012 H       1  LIG1        0.0639
     31 H         -10.6531    7.4701    0.0005 H       1  LIG1        0.0844
     32 O          -9.7724    3.0742   -0.0002 O.3     1  LIG1       -0.4919
     33 H          -9.0485    2.4437   -0.0002 H       1  LIG1        0.2937
     34 N          -7.6654    9.2059    0.0002 N.1     1  LIG1       -0.1908
     35 C          -7.9994    8.1090    0.0002 C.1     1  LIG1        0.1007
@<TRIPOS>BOND
     1    19    15    1
     2    30    26    1
     3     7     3    1
     4    11    12    3
     5    22    23    3
     6    14     5    1
     7    14    13   ar
     8    14    15   ar
     9    17    18   ar
    10    17    25    1
    11    17    16   ar
    12    23    16    1
    13    12     4    1
    14     5     6   ar
    15     5     4   ar
    16    13    20    1
    17    13    18   ar
    18    15    16   ar
    19    20    21    1
    20    25    24   ar
    21    25    26   ar
    22    33    32    1
    23    32    24    1
    24     6     1   ar
    25     4     3   ar
    26    24    29   ar
    27    26    27   ar
    28     1     2   ar
    29     1     9    1
    30     3     2   ar
    31     2     8    1
    32    29    28   ar
    33    28    27   ar
    34    28    31    1
    35    27    35    1
    36    35    34    3
    37     9    10    1
