@<TRIPOS>MOLECULE
mol_data/noopt/geoms/mol2/6fd6fd-.out
 24 25 0 0 0
SMALL
GASTEIGER

@<TRIPOS>ATOM
      1 C          -4.5775   -2.0270    0.0001 C.ar    1  LIG1        0.2129
      2 C          -3.1706   -2.0270    0.0001 C.ar    1  LIG1        0.0011
      3 C          -2.5039   -0.8004    0.0001 C.ar    1  LIG1       -0.0372
      4 C          -3.2580    0.3743   -0.0001 C.ar    1  LIG1        0.0781
      5 C          -4.6612    0.2715   -0.0003 C.ar    1  LIG1        0.0972
      6 N          -5.3207   -0.9034   -0.0001 N.ar    1  LIG1       -0.2116
      7 H          -1.4054   -0.7607   -0.0009 H       1  LIG1        0.0633
      8 H          -2.5135   -3.1487    0.0004 H       1  LIG1        0.0671
      9 O          -5.2431   -3.1437    0.0002 O.3     1  LIG1       -0.4924
     10 H          -4.6298   -3.8823    0.0002 H       1  LIG1        0.2937
     11 N          -2.1789    2.5700   -0.0005 N.1     1  LIG1       -0.1908
     12 C          -2.6846    1.5410   -0.0003 C.1     1  LIG1        0.1013
     13 C          -4.8196    2.6153   -0.0003 C.ar    1  LIG1        0.2218
     14 C          -5.4065    1.3366   -0.0004 C.ar    1  LIG1        0.0643
     15 C          -6.7994    1.2424   -0.0003 C.ar    1  LIG1       -0.0285
     16 C          -7.5524    2.4178   -0.0003 C.ar    1  LIG1        0.0707
     17 C          -6.8736    3.6502   -0.0004 C.ar    1  LIG1        0.0488
     18 N          -5.5307    3.7594   -0.0003 N.ar    1  LIG1       -0.2196
     19 H          -7.2937    0.2606   -0.0014 H       1  LIG1        0.0639
     20 H          -7.5307    4.7719   -0.0003 H       1  LIG1        0.0844
     21 O          -3.5270    2.7543   -0.0003 O.3     1  LIG1       -0.4919
     22 H          -3.3053    3.6884   -0.0003 H       1  LIG1        0.2937
     23 N          -9.9982    2.3530   -0.0005 N.1     1  LIG1       -0.1908
     24 C          -8.8520    2.3834   -0.0004 C.1     1  LIG1        0.1007
@<TRIPOS>BOND
     1    19    15    1
     2     7     3    1
     3    23    24    3
     4    11    12    3
     5    14    15   ar
     6    14     5    1
     7    14    13   ar
     8    24    16    1
     9    17    16   ar
    10    17    20    1
    11    17    18   ar
    12    15    16   ar
    13     5     6   ar
    14     5     4   ar
    15    12     4    1
    16    13    18   ar
    17    13    21    1
    18    21    22    1
    19     6     1   ar
    20     4     3   ar
    21     1     2   ar
    22     1     9    1
    23     3     2   ar
    24     2     8    1
    25     9    10    1
