@<TRIPOS>MOLECULE
mol_data/noopt/geoms/mol2/6fd6fd-4fd6fd.out
 47 49 0 0 0
SMALL
GASTEIGER

@<TRIPOS>ATOM
      1 C          -4.5775   -2.0270    0.0001 C.ar    1  LIG1        0.2129
      2 C          -3.1706   -2.0270    0.0001 C.ar    1  LIG1        0.0011
      3 C          -2.5039   -0.8004    0.0001 C.ar    1  LIG1       -0.0372
      4 C          -3.2580    0.3743   -0.0001 C.ar    1  LIG1        0.0781
      5 C          -4.6612    0.2715   -0.0003 C.ar    1  LIG1        0.0972
      6 N          -5.3207   -0.9034   -0.0001 N.ar    1  LIG1       -0.2116
      7 H          -1.4054   -0.7607   -0.0009 H       1  LIG1        0.0633
      8 H          -2.5135   -3.1487    0.0004 H       1  LIG1        0.0671
      9 O          -5.2431   -3.1437    0.0002 O.3     1  LIG1       -0.4924
     10 H          -4.6298   -3.8823    0.0002 H       1  LIG1        0.2937
     11 N          -2.1789    2.5700   -0.0005 N.1     1  LIG1       -0.1908
     12 C          -2.6846    1.5410   -0.0003 C.1     1  LIG1        0.1013
     13 C          -4.8196    2.6153   -0.0003 C.ar    1  LIG1        0.2224
     14 C          -5.4065    1.3366   -0.0004 C.ar    1  LIG1        0.0643
     15 C          -6.7994    1.2424   -0.0003 C.ar    1  LIG1       -0.0279
     16 C          -7.5524    2.4178   -0.0003 C.ar    1  LIG1        0.0787
     17 C          -6.8736    3.6502   -0.0004 C.ar    1  LIG1        0.0956
     18 N          -5.5307    3.7594   -0.0003 N.ar    1  LIG1       -0.2111
     19 H          -7.2937    0.2606   -0.0014 H       1  LIG1        0.0639
     20 O          -3.5270    2.7543   -0.0003 O.3     1  LIG1       -0.4919
     21 H          -3.3053    3.6884   -0.0003 H       1  LIG1        0.2937
     22 N          -9.9982    2.3530   -0.0005 N.1     1  LIG1       -0.1908
     23 C          -8.8520    2.3834   -0.0004 C.1     1  LIG1        0.1013
     24 C          -6.8310    5.9958    0.0005 C.ar    1  LIG1        0.1266
     25 C          -7.5886    7.1830    0.0022 C.ar    1  LIG1       -0.0114
     26 C          -7.5307    4.7718   -0.0003 C.ar    1  LIG1        0.0434
     27 C          -8.9814    7.1551    0.0023 C.ar    1  LIG1       -0.0055
     28 H          -7.0688    8.1385    0.0030 H       1  LIG1        0.0660
     29 C          -8.9211    4.7434   -0.0001 C.ar    1  LIG1       -0.0446
     30 C          -9.6560    5.9336    0.0011 C.ar    1  LIG1       -0.0298
     31 H          -9.4376    3.7869   -0.0006 H       1  LIG1        0.0628
     32 O          -5.5341    6.0859    0.0002 O.3     1  LIG1       -0.5061
     33 H          -5.2771    7.0109    0.0001 H       1  LIG1        0.2922
     34 N         -12.1018    5.8718    0.0017 N.3     2  LIG2        0.0000
     35 C         -10.9556    5.9008    0.0014 C.3     1  LIG1        0.0304
     36 C         -11.0562    8.2567    0.0047 C.ar    1  LIG1        0.2203
     37 C          -9.6493    8.2703    0.0037 C.ar    1  LIG1        0.0451
     38 C          -8.9946    9.5034    0.0047 C.ar    1  LIG1       -0.0301
     39 C          -9.7600   10.6707    0.0063 C.ar    1  LIG1        0.0706
     40 C         -11.1621   10.5543    0.0069 C.ar    1  LIG1        0.0488
     41 N         -11.8102    9.3730    0.0062 N.ar    1  LIG1       -0.2197
     42 H          -7.8965    9.5537    0.0030 H       1  LIG1        0.0639
     43 H         -11.9177   11.6121    0.0085 H       1  LIG1        0.0844
     44 O         -11.7109    7.1336    0.0040 O.3     1  LIG1       -0.4920
     45 H         -11.0905    6.4010    0.0038 H       1  LIG1        0.2937
     46 N          -8.7022   12.8768    0.0077 N.1     1  LIG1       -0.1908
     47 C          -9.1980   11.8429    0.0071 C.1     1  LIG1        0.1007
@<TRIPOS>BOND
     1    19    15    1
     2     7     3    1
     3    31    29    1
     4    22    23    3
     5    11    12    3
     6    14    15   ar
     7    14     5    1
     8    14    13   ar
     9    23    16    1
    10    17    16   ar
    11    17    26    1
    12    17    18   ar
    13    15    16   ar
    14     5     6   ar
    15     5     4   ar
    16    12     4    1
    17    26    29   ar
    18    26    24   ar
    19    13    18   ar
    20    13    20    1
    21    20    21    1
    22     6     1   ar
    23     4     3   ar
    24    29    30   ar
    25    33    32    1
    26     1     2   ar
    27     1     9    1
    28     3     2   ar
    29     2     8    1
    30    32    24    1
    31     9    10    1
    32    24    25   ar
    33    30    35    1
    34    30    27   ar
    35    25    27   ar
    36    25    28    1
    37    27    37    1
    38    42    38    1
    39    37    36   ar
    40    37    38   ar
    41    45    44    1
    42    44    36    1
    43    36    41   ar
    44    38    39   ar
    45    41    40   ar
    46    39    40   ar
    47    39    47    1
    48    40    43    1
    49    47    46    3
