@<TRIPOS>MOLECULE
mol_data/noopt/geoms/mol2/6fd6fd6fd6fd-.out
 46 49 0 0 0
SMALL
GASTEIGER

@<TRIPOS>ATOM
      1 C          -4.5775   -2.0270    0.0001 C.ar    1  LIG1        0.2129
      2 C          -3.1706   -2.0270    0.0001 C.ar    1  LIG1        0.0011
      3 C          -2.5039   -0.8004    0.0001 C.ar    1  LIG1       -0.0372
      4 C          -3.2580    0.3743   -0.0001 C.ar    1  LIG1        0.0781
      5 C          -4.6612    0.2715   -0.0003 C.ar    1  LIG1        0.0972
      6 N          -5.3207   -0.9034   -0.0001 N.ar    1  LIG1       -0.2116
      7 H          -1.4054   -0.7607   -0.0009 H       1  LIG1        0.0633
      8 H          -2.5135   -3.1487    0.0004 H       1  LIG1        0.0671
      9 O          -5.2431   -3.1437    0.0002 O.3     1  LIG1       -0.4924
     10 H          -4.6298   -3.8823    0.0002 H       1  LIG1        0.2937
     11 N          -2.1789    2.5700   -0.0005 N.1     1  LIG1       -0.1908
     12 C          -2.6846    1.5410   -0.0003 C.1     1  LIG1        0.1013
     13 C          -6.8088    1.2233   -0.0003 C.ar    1  LIG1        0.2224
     14 C          -5.4065    1.3366   -0.0004 C.ar    1  LIG1        0.0643
     15 C          -4.8408    2.6129   -0.0003 C.ar    1  LIG1       -0.0279
     16 C          -5.6871    3.7231   -0.0003 C.ar    1  LIG1        0.0787
     17 C          -7.0774    3.5076   -0.0004 C.ar    1  LIG1        0.0973
     18 N          -7.6401    2.2834   -0.0003 N.ar    1  LIG1       -0.2110
     19 H          -3.7491    2.7410   -0.0014 H       1  LIG1        0.0639
     20 O          -7.3823    0.0566   -0.0003 O.3     1  LIG1       -0.4919
     21 H          -6.7115   -0.6302   -0.0003 H       1  LIG1        0.2937
     22 N          -4.7883    5.9986   -0.0004 N.1     1  LIG1       -0.1908
     23 C          -5.2095    4.9322   -0.0004 C.1     1  LIG1        0.1013
     24 C          -9.2948    4.2833   -0.0001 C.ar    1  LIG1        0.2224
     25 C          -7.9061    4.5092   -0.0003 C.ar    1  LIG1        0.0643
     26 C          -7.4450    5.8270   -0.0001 C.ar    1  LIG1       -0.0279
     27 C          -8.3780    6.8653    0.0002 C.ar    1  LIG1        0.0787
     28 C          -9.7465    6.5385    0.0002 C.ar    1  LIG1        0.0973
     29 N         -10.2087    5.2730    0.0002 N.ar    1  LIG1       -0.2110
     30 H          -6.3672    6.0425   -0.0012 H       1  LIG1        0.0639
     31 O          -9.7724    3.0742   -0.0002 O.3     1  LIG1       -0.4919
     32 H          -9.0485    2.4437   -0.0002 H       1  LIG1        0.2937
     33 N          -7.6654    9.2059    0.0002 N.1     1  LIG1       -0.1908
     34 C          -7.9994    8.1090    0.0002 C.1     1  LIG1        0.1013
     35 C         -10.2792    8.8264    0.0008 C.ar    1  LIG1        0.2218
     36 C         -10.6531    7.4702    0.0005 C.ar    1  LIG1        0.0643
     37 C         -12.0128    7.1535    0.0008 C.ar    1  LIG1       -0.0285
     38 C         -12.9448    8.1927    0.0012 C.ar    1  LIG1        0.0707
     39 C         -12.4727    9.5181    0.0013 C.ar    1  LIG1        0.0488
     40 N         -11.1648    9.8416    0.0012 N.ar    1  LIG1       -0.2196
     41 H         -12.3431    6.1051   -0.0005 H       1  LIG1        0.0639
     42 H         -13.3014   10.5197    0.0018 H       1  LIG1        0.0844
     43 O          -9.0257    9.1713    0.0006 O.3     1  LIG1       -0.4919
     44 H          -8.9568   10.1288    0.0006 H       1  LIG1        0.2937
     45 N         -15.3484    7.7360    0.0014 N.1     1  LIG1       -0.1908
     46 C         -14.2220    7.9501    0.0013 C.1     1  LIG1        0.1007
@<TRIPOS>BOND
     1    19    15    1
     2    30    26    1
     3     7     3    1
     4    41    37    1
     5    11    12    3
     6    22    23    3
     7    14     5    1
     8    14    13   ar
     9    14    15   ar
    10    17    18   ar
    11    17    25    1
    12    17    16   ar
    13    23    16    1
    14     5     6   ar
    15     5     4   ar
    16    12     4    1
    17    13    20    1
    18    13    18   ar
    19    15    16   ar
    20    20    21    1
    21    25    24   ar
    22    25    26   ar
    23    32    31    1
    24    31    24    1
    25     6     1   ar
    26     4     3   ar
    27    24    29   ar
    28    26    27   ar
    29     1     2   ar
    30     1     9    1
    31     3     2   ar
    32     2     8    1
    33    29    28   ar
    34    28    27   ar
    35    28    36    1
    36    27    34    1
    37    34    33    3
    38     9    10    1
    39    36    37   ar
    40    36    35   ar
    41    44    43    1
    42    43    35    1
    43    37    38   ar
    44    35    40   ar
    45    38    39   ar
    46    38    46    1
    47    40    39   ar
    48    39    42    1
    49    46    45    3
