@<TRIPOS>MOLECULE
mol_data/noopt/geoms/mol2/6fd6ed13ei-12ai6ed12fd12ah4ld.out
 93 97 0 0 0
SMALL
GASTEIGER

@<TRIPOS>ATOM
      1 C          -4.5775   -2.0270    0.0001 C.ar    1  LIG1        0.2129
      2 C          -3.1706   -2.0270    0.0001 C.ar    1  LIG1        0.0011
      3 C          -2.5039   -0.8004    0.0001 C.ar    1  LIG1       -0.0372
      4 C          -3.2580    0.3743   -0.0001 C.ar    1  LIG1        0.0780
      5 C          -4.6612    0.2715   -0.0003 C.ar    1  LIG1        0.0948
      6 N          -5.3207   -0.9034   -0.0001 N.ar    1  LIG1       -0.2116
      7 H          -1.4054   -0.7607   -0.0009 H       1  LIG1        0.0633
      8 H          -2.5135   -3.1487    0.0004 H       1  LIG1        0.0671
      9 O          -5.2431   -3.1437    0.0002 O.3     1  LIG1       -0.4924
     10 H          -4.6298   -3.8823    0.0002 H       1  LIG1        0.2937
     11 N          -2.1789    2.5700   -0.0005 N.1     1  LIG1       -0.1908
     12 C          -2.6846    1.5410   -0.0003 C.1     1  LIG1        0.1013
     13 C          -6.8088    1.2233   -0.0003 C.ar    1  LIG1        0.1239
     14 C          -5.4065    1.3366   -0.0004 C.ar    1  LIG1        0.0359
     15 C          -4.8408    2.6129   -0.0003 C.ar    1  LIG1       -0.0426
     16 C          -5.6871    3.7231   -0.0003 C.ar    1  LIG1        0.0073
     17 C          -7.0774    3.5076   -0.0004 C.ar    1  LIG1        0.0793
     18 N          -7.6401    2.2834   -0.0003 N.ar    1  LIG1       -0.2396
     19 H          -3.7491    2.7410   -0.0014 H       1  LIG1        0.0629
     20 C          -7.3823    0.0566   -0.0003 C.1     1  LIG1       -0.0319
     21 C          -7.9122   -1.0214   -0.0003 C.1     1  LIG1       -0.0076
     22 H          -8.3842   -1.9816   -0.0003 H       1  LIG1        0.1417
     23 N          -4.7883    5.9986   -0.0004 N.pl3   1  LIG1       -0.2336
     24 C          -5.2095    4.9322   -0.0004 C.3     1  LIG1        0.1391
     25 C          -7.9061    4.5092   -0.0003 C.3     1  LIG1        0.1394
     26 C          -7.6714    5.8481    0.0160 C.2     1  LIG1        0.0326
     27 C          -8.9436    6.5055    0.0084 C.2     1  LIG1       -0.0127
     28 C          -9.8997    5.5394   -0.0139 C.2     1  LIG1        0.0749
     29 N          -9.2690    4.3158   -0.0189 N.pl3   1  LIG1       -0.3235
     30 H          -9.7251    3.4328   -0.0342 H       1  LIG1        0.1475
     31 C          -6.5052    6.4223    0.0364 C.1     1  LIG1       -0.0967
     32 C          -5.4277    6.9528    0.0552 C.2     1  LIG1        0.0548
     33 H          -4.4679    7.4254    0.0720 H       1  LIG1        0.0888
     34 C          -9.1501    7.7892    0.0202 C.3     1  LIG1       -0.0369
     35 H         -10.0686    7.9980    0.5279 H       1  LIG1        0.0278
     36 H          -9.2083    8.1504   -0.9853 H       1  LIG1        0.0278
     37 H          -8.3434    8.2756    0.5278 H       1  LIG1        0.0278
     38 C         -11.1961    5.6358   -0.0284 C.ar    1  LIG1        0.1499
     39 C         -12.1051    6.6734   -0.0245 C.ar    1  LIG1       -0.0111
     40 C         -13.4219    6.0714   -0.0493 C.ar    1  LIG1       -0.0040
     41 C         -13.2300    4.7052   -0.0667 C.ar    1  LIG1        0.1413
     42 O         -11.8660    4.4118   -0.0544 O.2     1  LIG1       -0.4532
     43 H         -11.8563    7.9492   -0.0030 H       1  LIG1        0.0659
     44 C         -14.5505    6.7172   -0.0537 C.3     1  LIG1       -0.0361
     45 H         -15.2955    6.1370    0.4495 H       1  LIG1        0.0279
     46 H         -14.8571    6.8926   -1.0638 H       1  LIG1        0.0279
     47 H         -14.4276    7.6535    0.4494 H       1  LIG1        0.0279
     48 C         -13.4532    2.3670   -0.1045 C.ar    1  LIG1        0.1246
     49 C         -14.0045    3.6613   -0.0913 C.ar    1  LIG1        0.0526
     50 C         -15.3941    3.7942   -0.1047 C.ar    1  LIG1       -0.0288
     51 C         -16.1793    2.6404   -0.1309 C.ar    1  LIG1        0.0816
     52 C         -15.5349    1.3897   -0.1426 C.ar    1  LIG1        0.1284
     53 N         -14.1956    1.2432   -0.1298 N.ar    1  LIG1       -0.2332
     54 H         -15.8611    4.7893   -0.0960 H       1  LIG1        0.0639
     55 C         -12.1650    2.1920   -0.0927 C.1     1  LIG1       -0.0491
     56 C         -10.9748    2.0304   -0.0818 C.1     1  LIG1       -0.1124
     57 H          -9.9146    1.8864   -0.0721 H       1  LIG1        0.1232
     58 N         -18.6222    2.7732   -0.1564 N.1     1  LIG1       -0.1908
     59 C         -17.4773    2.7109   -0.1444 C.1     1  LIG1        0.1014
     60 C         -16.2227    0.2869   -0.1669 C.ar    1  LIG1        0.1977
     61 C         -17.5639   -0.0354   -0.1852 C.ar    1  LIG1        0.1827
     62 C         -17.6428   -1.4811   -0.2089 C.ar    1  LIG1        0.1425
     63 C         -16.3440   -1.9466   -0.2035 C.ar    1  LIG1        0.1911
     64 O         -15.4503   -0.8754   -0.1778 O.2     1  LIG1       -0.4450
     65 O         -18.5779    0.7782   -0.1822 O.3     1  LIG1       -0.5023
     66 H         -19.3941    0.2729   -0.1815 H       1  LIG1        0.2923
     67 N         -19.7056   -2.7961   -0.2500 N.1     1  LIG1       -0.1906
     68 C         -18.7389   -2.1798   -0.2307 C.1     1  LIG1        0.1068
     69 C         -15.7797   -3.1176   -0.2165 C.2     1  LIG1        0.1656
     70 C         -16.2242   -4.4236   -0.2115 C.2     1  LIG1       -0.0126
     71 C         -15.0447   -5.2633   -0.2348 C.3     1  LIG1        0.0524
     72 C         -13.9571   -4.4144   -0.2526 C.3     1  LIG1        0.1908
     73 O         -14.3847   -3.0862   -0.2418 O.2     1  LIG1       -0.4722
     74 H         -17.4536   -4.8455   -0.1901 H       1  LIG1        0.0656
     75 N         -15.0401   -6.5633   -0.2379 N.3     1  LIG1       -0.2553
     76 H         -15.8554   -6.8983   -0.7101 H       2  UNK2        0.0000
     77 H         -14.2224   -6.8926   -0.7102 H       3  UNK3        0.0000
     78 C         -12.1086   -5.8585   -0.2884 C.ar    1  LIG1        0.1861
     79 C         -10.7047   -5.9667   -0.3125 C.ar    1  LIG1       -0.0142
     80 C         -12.6660   -4.5636   -0.2763 C.ar    1  LIG1        0.0475
     81 C          -9.8898   -4.8369   -0.3248 C.ar    1  LIG1       -0.0530
     82 H         -10.2537   -6.9565   -0.3220 H       1  LIG1        0.0656
     83 C         -11.8530   -3.4353   -0.2886 C.ar    1  LIG1       -0.0458
     84 C         -10.4603   -3.5635   -0.3130 C.ar    1  LIG1       -0.0212
     85 H         -12.3068   -2.4476   -0.2788 H       1  LIG1        0.0626
     86 H          -8.5972   -4.9736   -0.3472 H       1  LIG1        0.0622
     87 O         -12.8162   -6.9491   -0.2782 O.3     1  LIG1       -0.2875
     88 C         -14.2068   -6.6157   -0.2745 C.3     1  LIG1        0.0245
     89 H         -14.7888   -7.5136   -0.2662 H       1  LIG1        0.1406
     90 H         -14.4324   -6.0364    0.5965 H       1  LIG1        0.0451
     91 H         -14.4398   -6.0477   -1.1508 H       1  LIG1        0.0451
     92 N          -9.0395   -1.5719   -0.3340 N.3     1  LIG1       -0.2407
     93 C          -9.7054   -2.5053   -0.3242 C.3     1  LIG1        0.1092
@<TRIPOS>BOND
     1    91    88    1
     2    46    44    1
     3    36    34    1
     4    86    81    1
     5    92    93    1
     6    92    22    1
     7    81    84   ar
     8    81    79   ar
     9    93    84    1
    10    82    79    1
    11    84    83   ar
    12    79    78   ar
    13    83    85    1
    14    83    80   ar
    15    78    87    1
    16    78    80   ar
    17    80    72    1
    18    88    75    1
    19    88    90    1
    20    89    75    1
    21    72    73    1
    22    72    71    1
    23    67    68    3
    24    73    69    1
    25    68    62    1
    26    69    70    2
    27    69    63    1
    28    70    74    1
    29    62    63   ar
    30    62    61   ar
    31    63    64   ar
    32    61    65    1
    33    61    60   ar
    34    65    66    1
    35    64    60   ar
    36    60    52    1
    37    58    59    3
    38    59    51    1
    39    52    51   ar
    40    52    53   ar
    41    51    50   ar
    42    53    48   ar
    43    50    54    1
    44    50    49   ar
    45    48    55    1
    46    48    49   ar
    47    55    56    3
    48    49    41    1
    49    56    57    1
    50    41    42   ar
    51    41    40   ar
    52    42    38   ar
    53    44    40    1
    54    44    47    1
    55    44    45    1
    56    40    39   ar
    57    30    29    1
    58    38    39   ar
    59    38    28    1
    60    39    43    1
    61    29    28    1
    62    29    25    1
    63    28    27    2
    64    19    15    1
    65     7     3    1
    66    11    12    3
    67    23    24    1
    68    23    32    1
    69    14     5    1
    70    14    13   ar
    71    14    15   ar
    72    17    18   ar
    73    17    25    1
    74    17    16   ar
    75    24    16    1
    76     5     6   ar
    77     5     4   ar
    78    12     4    1
    79    13    20    1
    80    13    18   ar
    81    15    16   ar
    82    20    21    3
    83    25    26    1
    84     6     1   ar
    85     4     3   ar
    86     1     2   ar
    87     1     9    1
    88     3     2   ar
    89     2     8    1
    90     9    10    1
    91    27    26    1
    92    27    34    1
    93    26    31    2
    94    34    37    1
    95    34    35    1
    96    31    32    2
    97    32    33    1
