@<TRIPOS>MOLECULE
mol_data/noopt/geoms/mol2/6fe13de(310)13le(110)6fa(240).out
 49 52 0 0 0
SMALL
GASTEIGER

@<TRIPOS>ATOM
      1 C          -4.5775   -2.0270    0.0001 C.ar    1  LIG1        0.2129
      2 C          -3.1706   -2.0270    0.0001 C.ar    1  LIG1        0.0010
      3 C          -2.5039   -0.8004    0.0001 C.ar    1  LIG1       -0.0392
      4 C          -3.2580    0.3743   -0.0001 C.ar    1  LIG1        0.0523
      5 C          -4.6612    0.2715   -0.0003 C.ar    1  LIG1        0.1075
      6 N          -5.3207   -0.9034   -0.0001 N.ar    1  LIG1       -0.2103
      7 H          -1.4054   -0.7607   -0.0009 H       1  LIG1        0.0632
      8 H          -2.5135   -3.1487    0.0004 H       1  LIG1        0.0671
      9 O          -5.2431   -3.1437    0.0002 O.3     1  LIG1       -0.4924
     10 H          -4.6298   -3.8823    0.0002 H       1  LIG1        0.2937
     11 C          -2.6846    1.5410   -0.0003 C.1     1  LIG1       -0.0675
     12 C          -2.1548    2.6190   -0.0005 C.1     1  LIG1       -0.1138
     13 H          -1.6828    3.5793   -0.0006 H       1  LIG1        0.1232
     14 C          -5.4065    1.3366   -0.0004 C.ar    1  LIG1        0.0855
     15 C          -5.3412    2.4587   -0.7651 C.ar    1  LIG1        0.0945
     16 C          -6.4056    3.3219   -0.3496 C.ar    1  LIG1        0.0695
     17 C          -7.0756    2.6886    0.6495 C.ar    1  LIG1        0.0839
     18 N          -6.4669    1.4731    0.8668 N.ar    1  LIG1       -0.3497
     19 H          -6.7488    0.8004    1.5421 H       1  LIG1        0.1661
     20 N          -3.7023    2.9140   -2.5236 N.1     1  LIG1       -0.1908
     21 C          -4.4704    2.7006   -1.6995 C.1     1  LIG1        0.1026
     22 C          -6.6834    4.4950   -0.8360 C.1     1  LIG1       -0.0662
     23 C          -6.9401    5.5790   -1.2854 C.1     1  LIG1       -0.1138
     24 H          -7.1688    6.5446   -1.6857 H       1  LIG1        0.1232
     25 C          -8.1092    3.0647    1.3425 C.ar    1  LIG1        0.1080
     26 C          -8.4584    2.7873    2.6266 C.ar    1  LIG1        0.1626
     27 C          -9.6974    3.4563    2.8870 C.ar    1  LIG1        0.0923
     28 C         -10.0500    4.1146    1.7510 C.ar    1  LIG1        0.0713
     29 N          -9.0807    3.8771    0.8027 N.ar    1  LIG1       -0.3489
     30 H          -9.0817    4.2358   -0.1243 H       1  LIG1        0.1661
     31 O          -7.7889    2.0488    3.4612 O.3     1  LIG1       -0.4917
     32 C          -8.5419    0.8723    3.7676 C.3     1  LIG1        0.0789
     33 H          -7.9905    0.2647    4.4544 H       1  LIG1        0.0660
     34 H          -9.4759    1.1513    4.2088 H       1  LIG1        0.0660
     35 H          -8.7227    0.3204    2.8689 H       1  LIG1        0.0660
     36 C         -10.3647    3.4401    4.0025 C.1     1  LIG1       -0.0638
     37 C         -10.9813    3.4250    5.0333 C.1     1  LIG1       -0.1137
     38 H         -11.5305    3.4116    5.9515 H       1  LIG1        0.1232
     39 C         -11.4666    5.8789    2.3825 C.ar    1  LIG1        0.2217
     40 C         -11.0853    4.8575    1.4933 C.ar    1  LIG1        0.0609
     41 C         -11.8417    4.6643    0.3359 C.ar    1  LIG1       -0.0461
     42 C         -12.9436    5.4903    0.1077 C.ar    1  LIG1       -0.0427
     43 C         -13.2455    6.4845    1.0563 C.ar    1  LIG1        0.0314
     44 N         -12.5266    6.6848    2.1781 N.ar    1  LIG1       -0.2209
     45 H         -11.5749    3.8756   -0.3817 H       1  LIG1        0.0626
     46 H         -14.2613    7.2782    0.8883 H       1  LIG1        0.0831
     47 O         -10.7938    6.0974    3.4733 O.3     1  LIG1       -0.4919
     48 H         -10.9075    7.0119    3.7421 H       1  LIG1        0.2937
     49 H         -13.6797    5.3505   -0.9547 H       1  LIG1        0.0633
@<TRIPOS>BOND
     1    20    21    3
     2    21    15    1
     3    24    23    1
     4    23    22    3
     5    49    42    1
     6    22    16    1
     7    15    16   ar
     8    15    14   ar
     9    45    41    1
    10    16    17   ar
    11    30    29    1
    12     7     3    1
    13    13    12    1
    14    12    11    3
    15    14     5    1
    16    14    18   ar
    17     5     6   ar
    18     5     4   ar
    19    11     4    1
    20     6     1   ar
    21     4     3   ar
    22     1     2   ar
    23     1     9    1
    24     2     3   ar
    25     2     8    1
    26     9    10    1
    27    42    41   ar
    28    42    43   ar
    29    41    40   ar
    30    17    18   ar
    31    17    25    1
    32    29    25   ar
    33    29    28   ar
    34    18    19    1
    35    46    43    1
    36    43    44   ar
    37    25    26   ar
    38    40    28    1
    39    40    39   ar
    40    28    27   ar
    41    44    39   ar
    42    39    47    1
    43    26    27   ar
    44    26    31    1
    45    35    32    1
    46    27    36    1
    47    31    32    1
    48    47    48    1
    49    32    34    1
    50    32    33    1
    51    36    37    3
    52    37    38    1
