@<TRIPOS>MOLECULE
mol_data/noopt/geoms/mol2/6fe13de-12ad-4fh-.out
 46 50 0 0 0
SMALL
GASTEIGER

@<TRIPOS>ATOM
      1 C          -4.5775   -2.0270    0.0001 C.2     1  LIG1        0.2094
      2 C          -3.1706   -2.0270    0.0001 C.2     1  LIG1       -0.0136
      3 C          -2.5039   -0.8004    0.0001 C.3     1  LIG1        0.0279
      4 C          -3.2580    0.3743   -0.0001 C.2     1  LIG1        0.0312
      5 C          -4.6612    0.2715   -0.0003 C.2     1  LIG1        0.1026
      6 N          -5.3207   -0.9034   -0.0001 N.2     1  LIG1       -0.2109
      7 H          -1.4054   -0.7607   -0.0009 H       1  LIG1        0.0409
      8 H          -2.5135   -3.1487    0.0004 H       1  LIG1        0.0631
      9 O          -5.2431   -3.1437    0.0002 O.2     1  LIG1       -0.4926
     10 H          -4.6298   -3.8823    0.0002 H       1  LIG1        0.2937
     11 C          -2.6846    1.5410   -0.0003 C.1     1  LIG1       -0.0968
     12 C          -2.1548    2.6190   -0.0005 C.2     1  LIG1        0.0548
     13 H          -1.6828    3.5793   -0.0006 H       1  LIG1        0.0888
     14 C          -5.4065    1.3366   -0.0004 C.ar    1  LIG1        0.0732
     15 C          -5.0647    2.6523    0.0158 C.ar    1  LIG1        0.0256
     16 C          -6.2798    3.4100    0.0080 C.ar    1  LIG1        0.0590
     17 C          -7.3107    2.5241   -0.0144 C.ar    1  LIG1        0.0985
     18 N          -6.7805    1.2536   -0.0191 N.ar    1  LIG1       -0.3493
     19 H          -7.3063    0.4102   -0.0343 H       1  LIG1        0.1661
     20 N          -2.7901    3.5526    0.0542 N.pl3   1  LIG1       -0.2335
     21 C          -3.8561    3.1306    0.0362 C.3     1  LIG1        0.1406
     22 C          -6.3823    4.7059    0.0196 C.1     1  LIG1       -0.0671
     23 C          -6.4769    5.9033    0.0303 C.1     1  LIG1       -0.1138
     24 H          -6.5613    6.9699    0.0399 H       1  LIG1        0.1232
     25 C          -8.5950    2.7246   -0.0290 C.ar    1  LIG1        0.1543
     26 C          -9.4174    3.8321   -0.0400 C.ar    1  LIG1        0.0037
     27 C         -10.7785    3.3380   -0.0542 C.ar    1  LIG1        0.0982
     28 C         -10.6975    1.9607   -0.0510 C.ar    1  LIG1        0.1566
     29 O          -9.3616    1.5584   -0.0356 O.2     1  LIG1       -0.4519
     30 H          -9.0663    5.0838   -0.0382 H       1  LIG1        0.0669
     31 N         -12.7970    4.7204   -0.0790 N.1     1  LIG1       -0.1907
     32 C         -11.8510    4.0725   -0.0674 C.1     1  LIG1        0.1030
     33 C         -12.9361    1.2589   -0.0409 C.ar    1  LIG1        0.1276
     34 C         -13.8226    0.1646   -0.0488 C.ar    1  LIG1       -0.0177
     35 C         -11.5537    0.9825   -0.0588 C.ar    1  LIG1        0.0617
     36 C         -13.3556   -1.1475   -0.0740 C.ar    1  LIG1       -0.0376
     37 H         -14.8934    0.3553   -0.0351 H       1  LIG1        0.0655
     38 C         -11.0869   -0.3273   -0.0839 C.ar    1  LIG1       -0.0268
     39 C         -11.9835   -1.4009   -0.0918 C.ar    1  LIG1        0.0254
     40 H         -10.0162   -0.5144   -0.0973 H       1  LIG1        0.0644
     41 H         -14.2023   -2.1340   -0.0807 H       1  LIG1        0.0637
     42 O         -13.4318    2.4605   -0.0175 O.3     1  LIG1       -0.5061
     43 H         -14.3905    2.4116   -0.0117 H       1  LIG1        0.2922
     44 N         -11.5413   -2.6231   -0.1151 N.pl3   1  LIG1       -0.3579
     45 H         -12.1986   -3.2063   -0.5925 H       1  LIG1        0.1423
     46 H         -10.6630   -2.6508   -0.5925 H       1  LIG1        0.1423
@<TRIPOS>BOND
     1    46    44    1
     2    45    44    1
     3    44    39    1
     4    40    38    1
     5    39    38   ar
     6    39    36   ar
     7    38    35   ar
     8    41    36    1
     9    31    32    3
    10    36    34   ar
    11    32    27    1
    12    35    28    1
    13    35    33   ar
    14    27    28   ar
    15    27    26   ar
    16    28    29   ar
    17    34    33   ar
    18    34    37    1
    19    33    42    1
    20    26    30    1
    21    26    25   ar
    22    29    25   ar
    23    19    18    1
    24    25    17    1
    25    18    17   ar
    26    18    14   ar
    27    42    43    1
    28    17    16   ar
    29     7     3    1
    30    13    12    1
    31    12    11    2
    32    12    20    1
    33    14     5    1
    34    14    15   ar
    35    11     4    2
    36     5     6    2
    37     5     4    1
    38     6     1    1
    39     4     3    1
    40     1     2    2
    41     1     9    1
    42     3     2    1
    43     2     8    1
    44     9    10    1
    45    16    15   ar
    46    16    22    1
    47    15    21    1
    48    22    23    3
    49    23    24    1
    50    21    20    1
