@<TRIPOS>MOLECULE
mol_data/noopt/geoms/mol2/6fe12ed(30)12ad(90)12lf(190).out
 44 47 0 0 0
SMALL
GASTEIGER

@<TRIPOS>ATOM
      1 C          -4.5775   -2.0270    0.0001 C.ar    1  LIG1        0.2129
      2 C          -3.1706   -2.0270    0.0001 C.ar    1  LIG1        0.0010
      3 C          -2.5039   -0.8004    0.0001 C.ar    1  LIG1       -0.0391
      4 C          -3.2580    0.3743   -0.0001 C.ar    1  LIG1        0.0539
      5 C          -4.6612    0.2715   -0.0003 C.ar    1  LIG1        0.1263
      6 N          -5.3207   -0.9034   -0.0001 N.ar    1  LIG1       -0.2086
      7 H          -1.4054   -0.7607   -0.0009 H       1  LIG1        0.0632
      8 H          -2.5135   -3.1487    0.0004 H       1  LIG1        0.0671
      9 O          -5.2431   -3.1437    0.0002 O.3     1  LIG1       -0.4924
     10 H          -4.6298   -3.8823    0.0002 H       1  LIG1        0.2937
     11 C          -2.6846    1.5410   -0.0003 C.1     1  LIG1       -0.0674
     12 C          -2.1548    2.6190   -0.0005 C.1     1  LIG1       -0.1138
     13 H          -1.6828    3.5793   -0.0006 H       1  LIG1        0.1232
     14 C          -5.4065    1.3366   -0.0004 C.ar    1  LIG1        0.1719
     15 C          -5.2630    2.6373    0.4362 C.ar    1  LIG1        0.0900
     16 C          -6.5007    3.3196    0.1210 C.ar    1  LIG1        0.1165
     17 C          -7.3189    2.3902   -0.4876 C.ar    1  LIG1        0.1892
     18 O          -6.6664    1.1598   -0.5740 O.2     1  LIG1       -0.4475
     19 C          -4.2311    3.1717    1.0188 C.1     1  LIG1       -0.0645
     20 C          -3.2776    3.6656    1.5573 C.1     1  LIG1       -0.1138
     21 H          -2.4282    4.1054    2.0369 H       1  LIG1        0.1232
     22 N          -6.9955    5.6680    0.5967 N.1     1  LIG1       -0.1907
     23 C          -6.7637    4.5674    0.3738 C.1     1  LIG1        0.1043
     24 C          -8.5206    2.3976   -0.9835 C.ar    1  LIG1        0.1733
     25 C          -9.7986    2.4056   -0.4642 C.ar    1  LIG1        0.0055
     26 C         -10.7051    2.4112   -1.5934 C.ar    1  LIG1        0.1013
     27 C          -9.9205    2.4065   -2.7283 C.ar    1  LIG1        0.1918
     28 O          -8.5699    2.3981   -2.3782 O.2     1  LIG1       -0.4471
     29 H         -10.1488    2.4077    0.7877 H       1  LIG1        0.0670
     30 N         -13.1480    2.4264   -1.4608 N.1     1  LIG1       -0.1907
     31 C         -12.0031    2.4193   -1.5229 C.1     1  LIG1        0.1031
     32 C         -10.1440    2.4078   -4.0090 C.ar    1  LIG1        0.2161
     33 C         -10.1736    1.4519   -5.0031 C.ar    1  LIG1        0.2108
     34 C         -10.4925    2.1438   -6.2346 C.ar    1  LIG1        0.1979
     35 C         -10.6367    3.4773   -5.9111 C.ar    1  LIG1        0.1379
     36 O         -10.4268    3.6652   -4.5445 O.2     1  LIG1       -0.4522
     37 H         -10.9147    4.5647   -6.5670 H       1  LIG1        0.1069
     38 O          -9.9609    0.1748   -4.8855 O.3     1  LIG1       -0.4883
     39 C         -11.2125   -0.5156   -4.8424 C.3     1  LIG1        0.0791
     40 H         -11.0370   -1.5666   -4.7457 H       1  LIG1        0.0660
     41 H         -11.7816   -0.1705   -4.0044 H       1  LIG1        0.0660
     42 H         -11.7556   -0.3261   -5.7446 H       1  LIG1        0.0660
     43 O         -10.6134    1.5908   -7.4049 O.3     1  LIG1       -0.5012
     44 H          -9.7592    1.2612   -7.6933 H       1  LIG1        0.2924
@<TRIPOS>BOND
     1    44    43    1
     2    43    34    1
     3    37    35    1
     4    34    35   ar
     5    34    33   ar
     6    35    36   ar
     7    42    39    1
     8    33    38    1
     9    33    32   ar
    10    38    39    1
    11    39    40    1
    12    39    41    1
    13    36    32   ar
    14    32    27    1
    15    27    28   ar
    16    27    26   ar
    17    28    24   ar
    18    26    31    1
    19    26    25   ar
    20    31    30    3
    21    24    17    1
    22    24    25   ar
    23    18    17   ar
    24    18    14   ar
    25    17    16   ar
    26    25    29    1
    27     7     3    1
    28    13    12    1
    29    12    11    3
    30    14     5    1
    31    14    15   ar
    32    11     4    1
    33     5     6   ar
    34     5     4   ar
    35     6     1   ar
    36     4     3   ar
    37     1     2   ar
    38     1     9    1
    39     3     2   ar
    40     2     8    1
    41     9    10    1
    42    16    23    1
    43    16    15   ar
    44    23    22    3
    45    15    19    1
    46    19    20    3
    47    20    21    1
