@<TRIPOS>MOLECULE
mol_data/noopt/geoms/mol2/6fe6fe-6fe.out
 38 40 0 0 0
SMALL
GASTEIGER

@<TRIPOS>ATOM
      1 C          -4.5775   -2.0270    0.0001 C.ar    1  LIG1        0.2129
      2 C          -3.1706   -2.0270    0.0001 C.ar    1  LIG1        0.0010
      3 C          -2.5039   -0.8004    0.0001 C.ar    1  LIG1       -0.0392
      4 C          -3.2580    0.3743   -0.0001 C.ar    1  LIG1        0.0510
      5 C          -4.6612    0.2715   -0.0003 C.ar    1  LIG1        0.0952
      6 N          -5.3207   -0.9034   -0.0001 N.ar    1  LIG1       -0.2116
      7 H          -1.4054   -0.7607   -0.0009 H       1  LIG1        0.0632
      8 H          -2.5135   -3.1487    0.0004 H       1  LIG1        0.0671
      9 O          -5.2431   -3.1437    0.0002 O.3     1  LIG1       -0.4924
     10 H          -4.6298   -3.8823    0.0002 H       1  LIG1        0.2937
     11 C          -2.6846    1.5410   -0.0003 C.1     1  LIG1       -0.0675
     12 C          -2.1548    2.6190   -0.0005 C.1     1  LIG1       -0.1138
     13 H          -1.6828    3.5793   -0.0006 H       1  LIG1        0.1232
     14 C          -4.8196    2.6153   -0.0003 C.ar    1  LIG1        0.2224
     15 C          -5.4065    1.3366   -0.0004 C.ar    1  LIG1        0.0642
     16 C          -6.7994    1.2424   -0.0003 C.ar    1  LIG1       -0.0299
     17 C          -7.5524    2.4178   -0.0003 C.ar    1  LIG1        0.0516
     18 C          -6.8736    3.6502   -0.0004 C.ar    1  LIG1        0.0953
     19 N          -5.5307    3.7594   -0.0003 N.ar    1  LIG1       -0.2111
     20 H          -7.2937    0.2606   -0.0014 H       1  LIG1        0.0639
     21 O          -3.5270    2.7543   -0.0003 O.3     1  LIG1       -0.4919
     22 H          -3.3053    3.6884   -0.0003 H       1  LIG1        0.2937
     23 C          -8.8520    2.3834   -0.0004 C.1     1  LIG1       -0.0675
     24 C         -10.0528    2.3516   -0.0005 C.1     1  LIG1       -0.1138
     25 H         -11.1224    2.3232   -0.0006 H       1  LIG1        0.1232
     26 C          -8.9376    4.7719   -0.0001 C.ar    1  LIG1        0.2218
     27 C          -7.5307    4.7719   -0.0003 C.ar    1  LIG1        0.0641
     28 C          -6.8640    5.9985   -0.0001 C.ar    1  LIG1       -0.0305
     29 C          -7.6181    7.1732    0.0002 C.ar    1  LIG1        0.0436
     30 C          -9.0213    7.0704    0.0002 C.ar    1  LIG1        0.0468
     31 N          -9.6808    5.8955    0.0002 N.ar    1  LIG1       -0.2197
     32 H          -5.7655    6.0382   -0.0012 H       1  LIG1        0.0638
     33 H          -9.7666    8.1355    0.0005 H       1  LIG1        0.0843
     34 O          -9.6033    3.6552   -0.0002 O.3     1  LIG1       -0.4919
     35 H          -8.9900    2.9166   -0.0002 H       1  LIG1        0.2937
     36 C          -7.0447    8.3399    0.0002 C.1     1  LIG1       -0.0681
     37 C          -6.5149    9.4179    0.0002 C.1     1  LIG1       -0.1139
     38 H          -6.0430   10.3782    0.0002 H       1  LIG1        0.1232
@<TRIPOS>BOND
     1    20    16    1
     2    32    28    1
     3     7     3    1
     4    13    12    1
     5    25    24    1
     6    24    23    3
     7    12    11    3
     8    15    16   ar
     9    15     5    1
    10    15    14   ar
    11    23    17    1
    12    18    17   ar
    13    18    27    1
    14    18    19   ar
    15    16    17   ar
    16     5     6   ar
    17     5     4   ar
    18    11     4    1
    19    27    26   ar
    20    27    28   ar
    21    14    19   ar
    22    14    21    1
    23    21    22    1
    24    35    34    1
    25    34    26    1
    26     6     1   ar
    27     4     3   ar
    28    26    31   ar
    29    28    29   ar
    30     1     2   ar
    31     1     9    1
    32     3     2   ar
    33     2     8    1
    34    31    30   ar
    35    30    29   ar
    36    30    33    1
    37    29    36    1
    38    36    37    3
    39     9    10    1
    40    37    38    1
