@<TRIPOS>MOLECULE
mol_data/noopt/geoms/mol2/6fe6fe-.out
 26 27 0 0 0
SMALL
GASTEIGER

@<TRIPOS>ATOM
      1 C          -4.5775   -2.0270    0.0001 C.ar    1  LIG1        0.2129
      2 C          -3.1706   -2.0270    0.0001 C.ar    1  LIG1        0.0010
      3 C          -2.5039   -0.8004    0.0001 C.ar    1  LIG1       -0.0392
      4 C          -3.2580    0.3743   -0.0001 C.ar    1  LIG1        0.0510
      5 C          -4.6612    0.2715   -0.0003 C.ar    1  LIG1        0.0952
      6 N          -5.3207   -0.9034   -0.0001 N.ar    1  LIG1       -0.2116
      7 H          -1.4054   -0.7607   -0.0009 H       1  LIG1        0.0632
      8 H          -2.5135   -3.1487    0.0004 H       1  LIG1        0.0671
      9 O          -5.2431   -3.1437    0.0002 O.3     1  LIG1       -0.4924
     10 H          -4.6298   -3.8823    0.0002 H       1  LIG1        0.2937
     11 C          -2.6846    1.5410   -0.0003 C.1     1  LIG1       -0.0675
     12 C          -2.1548    2.6190   -0.0005 C.1     1  LIG1       -0.1138
     13 H          -1.6828    3.5793   -0.0006 H       1  LIG1        0.1232
     14 C          -4.8196    2.6153   -0.0003 C.ar    1  LIG1        0.2218
     15 C          -5.4065    1.3366   -0.0004 C.ar    1  LIG1        0.0641
     16 C          -6.7994    1.2424   -0.0003 C.ar    1  LIG1       -0.0305
     17 C          -7.5524    2.4178   -0.0003 C.ar    1  LIG1        0.0436
     18 C          -6.8736    3.6502   -0.0004 C.ar    1  LIG1        0.0468
     19 N          -5.5307    3.7594   -0.0003 N.ar    1  LIG1       -0.2197
     20 H          -7.2937    0.2606   -0.0014 H       1  LIG1        0.0638
     21 H          -7.5307    4.7719   -0.0003 H       1  LIG1        0.0843
     22 O          -3.5270    2.7543   -0.0003 O.3     1  LIG1       -0.4919
     23 H          -3.3053    3.6884   -0.0003 H       1  LIG1        0.2937
     24 C          -8.8520    2.3834   -0.0004 C.1     1  LIG1       -0.0681
     25 C         -10.0528    2.3516   -0.0005 C.1     1  LIG1       -0.1139
     26 H         -11.1224    2.3232   -0.0006 H       1  LIG1        0.1232
@<TRIPOS>BOND
     1    20    16    1
     2     7     3    1
     3    13    12    1
     4    26    25    1
     5    25    24    3
     6    12    11    3
     7    15    16   ar
     8    15     5    1
     9    15    14   ar
    10    24    17    1
    11    18    17   ar
    12    18    21    1
    13    18    19   ar
    14    16    17   ar
    15     5     6   ar
    16     5     4   ar
    17    11     4    1
    18    14    19   ar
    19    14    22    1
    20    22    23    1
    21     6     1   ar
    22     4     3   ar
    23     1     2   ar
    24     1     9    1
    25     3     2   ar
    26     2     8    1
    27     9    10    1
