@<TRIPOS>MOLECULE
mol_data/noopt/geoms/mol2/6fe6fe-4fe6fe.out
 51 53 0 0 0
SMALL
GASTEIGER

@<TRIPOS>ATOM
      1 C          -4.5775   -2.0270    0.0001 C.ar    1  LIG1        0.2129
      2 C          -3.1706   -2.0270    0.0001 C.ar    1  LIG1        0.0010
      3 C          -2.5039   -0.8004    0.0001 C.ar    1  LIG1       -0.0392
      4 C          -3.2580    0.3743   -0.0001 C.ar    1  LIG1        0.0510
      5 C          -4.6612    0.2715   -0.0003 C.ar    1  LIG1        0.0952
      6 N          -5.3207   -0.9034   -0.0001 N.ar    1  LIG1       -0.2116
      7 H          -1.4054   -0.7607   -0.0009 H       1  LIG1        0.0632
      8 H          -2.5135   -3.1487    0.0004 H       1  LIG1        0.0671
      9 O          -5.2431   -3.1437    0.0002 O.3     1  LIG1       -0.4924
     10 H          -4.6298   -3.8823    0.0002 H       1  LIG1        0.2937
     11 C          -2.6846    1.5410   -0.0003 C.1     1  LIG1       -0.0675
     12 C          -2.1548    2.6190   -0.0005 C.1     1  LIG1       -0.1138
     13 H          -1.6828    3.5793   -0.0006 H       1  LIG1        0.1232
     14 C          -4.8196    2.6153   -0.0003 C.ar    1  LIG1        0.2224
     15 C          -5.4065    1.3366   -0.0004 C.ar    1  LIG1        0.0642
     16 C          -6.7994    1.2424   -0.0003 C.ar    1  LIG1       -0.0299
     17 C          -7.5524    2.4178   -0.0003 C.ar    1  LIG1        0.0516
     18 C          -6.8736    3.6502   -0.0004 C.ar    1  LIG1        0.0936
     19 N          -5.5307    3.7594   -0.0003 N.ar    1  LIG1       -0.2111
     20 H          -7.2937    0.2606   -0.0014 H       1  LIG1        0.0639
     21 O          -3.5270    2.7543   -0.0003 O.3     1  LIG1       -0.4919
     22 H          -3.3053    3.6884   -0.0003 H       1  LIG1        0.2937
     23 C          -8.8520    2.3834   -0.0004 C.1     1  LIG1       -0.0675
     24 C         -10.0528    2.3516   -0.0005 C.1     1  LIG1       -0.1138
     25 H         -11.1224    2.3232   -0.0006 H       1  LIG1        0.1232
     26 C          -6.8310    5.9958    0.0005 C.ar    1  LIG1        0.1266
     27 C          -7.5886    7.1830    0.0022 C.ar    1  LIG1       -0.0114
     28 C          -7.5307    4.7718   -0.0003 C.ar    1  LIG1        0.0434
     29 C          -8.9814    7.1551    0.0023 C.ar    1  LIG1       -0.0055
     30 H          -7.0688    8.1385    0.0030 H       1  LIG1        0.0660
     31 C          -8.9211    4.7434   -0.0001 C.ar    1  LIG1       -0.0446
     32 C          -9.6560    5.9336    0.0011 C.ar    1  LIG1       -0.0298
     33 H          -9.4376    3.7869   -0.0006 H       1  LIG1        0.0628
     34 O          -5.5341    6.0859    0.0002 O.3     1  LIG1       -0.5061
     35 H          -5.2771    7.0109    0.0001 H       1  LIG1        0.2922
     36 C         -10.9556    5.9008    0.0014 C.3     1  LIG1        0.0304
     37 C         -12.1564    5.8705    0.0017 C.3     2  LIG2       -0.0309
     38 H         -13.2261    5.8435    0.0020 H       1  LIG1        0.0309
     39 C         -11.0562    8.2567    0.0047 C.ar    1  LIG1        0.2203
     40 C          -9.6493    8.2703    0.0037 C.ar    1  LIG1        0.0451
     41 C          -8.9946    9.5034    0.0047 C.ar    1  LIG1       -0.0321
     42 C          -9.7600   10.6707    0.0063 C.ar    1  LIG1        0.0436
     43 C         -11.1621   10.5543    0.0069 C.ar    1  LIG1        0.0468
     44 N         -11.8102    9.3730    0.0062 N.ar    1  LIG1       -0.2197
     45 H          -7.8965    9.5537    0.0030 H       1  LIG1        0.0638
     46 H         -11.9177   11.6121    0.0085 H       1  LIG1        0.0843
     47 O         -11.7109    7.1336    0.0040 O.3     1  LIG1       -0.4920
     48 H         -11.0905    6.4010    0.0038 H       1  LIG1        0.2937
     49 C          -9.1980   11.8429    0.0071 C.1     1  LIG1       -0.0681
     50 C          -8.6786   12.9260    0.0077 C.1     1  LIG1       -0.1139
     51 H          -8.2160   13.8909    0.0083 H       1  LIG1        0.1232
@<TRIPOS>BOND
     1    20    16    1
     2     7     3    1
     3    13    12    1
     4    33    31    1
     5    25    24    1
     6    24    23    3
     7    12    11    3
     8    15    16   ar
     9    15     5    1
    10    15    14   ar
    11    23    17    1
    12    18    17   ar
    13    18    28    1
    14    18    19   ar
    15    16    17   ar
    16     5     6   ar
    17     5     4   ar
    18    11     4    1
    19    28    31   ar
    20    28    26   ar
    21    14    19   ar
    22    14    21    1
    23    21    22    1
    24     6     1   ar
    25     4     3   ar
    26    31    32   ar
    27    35    34    1
    28     1     2   ar
    29     1     9    1
    30     3     2   ar
    31     2     8    1
    32    34    26    1
    33     9    10    1
    34    26    27   ar
    35    32    36    1
    36    32    29   ar
    37    37    38    1
    38    27    29   ar
    39    27    30    1
    40    29    40    1
    41    45    41    1
    42    40    39   ar
    43    40    41   ar
    44    48    47    1
    45    47    39    1
    46    39    44   ar
    47    41    42   ar
    48    44    43   ar
    49    42    43   ar
    50    42    49    1
    51    43    46    1
    52    49    50    3
    53    50    51    1
