@<TRIPOS>MOLECULE
mol_data/noopt/geoms/mol2/6fe6fe-6fe-6fe.out
 50 53 0 0 0
SMALL
GASTEIGER

@<TRIPOS>ATOM
      1 C          -4.5775   -2.0270    0.0001 C.ar    1  LIG1        0.2129
      2 C          -3.1706   -2.0270    0.0001 C.ar    1  LIG1        0.0010
      3 C          -2.5039   -0.8004    0.0001 C.ar    1  LIG1       -0.0392
      4 C          -3.2580    0.3743   -0.0001 C.ar    1  LIG1        0.0510
      5 C          -4.6612    0.2715   -0.0003 C.ar    1  LIG1        0.0952
      6 N          -5.3207   -0.9034   -0.0001 N.ar    1  LIG1       -0.2116
      7 H          -1.4054   -0.7607   -0.0009 H       1  LIG1        0.0632
      8 H          -2.5135   -3.1487    0.0004 H       1  LIG1        0.0671
      9 O          -5.2431   -3.1437    0.0002 O.3     1  LIG1       -0.4924
     10 H          -4.6298   -3.8823    0.0002 H       1  LIG1        0.2937
     11 C          -2.6846    1.5410   -0.0003 C.1     1  LIG1       -0.0675
     12 C          -2.1548    2.6190   -0.0005 C.1     1  LIG1       -0.1138
     13 H          -1.6828    3.5793   -0.0006 H       1  LIG1        0.1232
     14 C          -4.8196    2.6153   -0.0003 C.ar    1  LIG1        0.2224
     15 C          -5.4065    1.3366   -0.0004 C.ar    1  LIG1        0.0642
     16 C          -6.7994    1.2424   -0.0003 C.ar    1  LIG1       -0.0299
     17 C          -7.5524    2.4178   -0.0003 C.ar    1  LIG1        0.0516
     18 C          -6.8736    3.6502   -0.0004 C.ar    1  LIG1        0.0953
     19 N          -5.5307    3.7594   -0.0003 N.ar    1  LIG1       -0.2111
     20 H          -7.2937    0.2606   -0.0014 H       1  LIG1        0.0639
     21 O          -3.5270    2.7543   -0.0003 O.3     1  LIG1       -0.4919
     22 H          -3.3053    3.6884   -0.0003 H       1  LIG1        0.2937
     23 C          -8.8520    2.3834   -0.0004 C.1     1  LIG1       -0.0675
     24 C         -10.0528    2.3516   -0.0005 C.1     1  LIG1       -0.1138
     25 H         -11.1224    2.3232   -0.0006 H       1  LIG1        0.1232
     26 C          -6.8427    5.9991   -0.0000 C.ar    1  LIG1        0.2224
     27 C          -7.5307    4.7719   -0.0003 C.ar    1  LIG1        0.0642
     28 C          -8.9267    4.7902   -0.0001 C.ar    1  LIG1       -0.0299
     29 C          -9.5826    6.0224    0.0002 C.ar    1  LIG1        0.0516
     30 C          -8.8067    7.1961    0.0002 C.ar    1  LIG1        0.0953
     31 N          -7.4594    7.1968    0.0002 N.ar    1  LIG1       -0.2111
     32 H          -9.4985    3.8514   -0.0012 H       1  LIG1        0.0639
     33 O          -5.5432    6.0336   -0.0001 O.3     1  LIG1       -0.4919
     34 H          -5.2469    6.9467   -0.0001 H       1  LIG1        0.2937
     35 C         -10.8807    6.0928    0.0002 C.1     1  LIG1       -0.0675
     36 C         -12.0801    6.1578    0.0002 C.1     1  LIG1       -0.1138
     37 H         -13.1486    6.2157    0.0002 H       1  LIG1        0.1232
     38 C         -10.7737    8.4804    0.0008 C.ar    1  LIG1        0.2218
     39 C          -9.3714    8.3671    0.0005 C.ar    1  LIG1        0.0641
     40 C          -8.6080    9.5360    0.0008 C.ar    1  LIG1       -0.0305
     41 C          -9.2650   10.7676    0.0012 C.ar    1  LIG1        0.0436
     42 C         -10.6720   10.7782    0.0013 C.ar    1  LIG1        0.0468
     43 N         -11.4240    9.6602    0.0012 N.ar    1  LIG1       -0.2197
     44 H          -7.5099    9.4871   -0.0004 H       1  LIG1        0.0638
     45 H         -11.3291   11.8999    0.0018 H       1  LIG1        0.0843
     46 O         -11.5271    7.4209    0.0006 O.3     1  LIG1       -0.4919
     47 H         -10.9753    6.6354    0.0006 H       1  LIG1        0.2937
     48 C          -8.5995   11.8843    0.0014 C.1     1  LIG1       -0.0681
     49 C          -7.9846   12.9162    0.0015 C.1     1  LIG1       -0.1139
     50 H          -7.4368   13.8354    0.0016 H       1  LIG1        0.1232
@<TRIPOS>BOND
     1    20    16    1
     2    32    28    1
     3     7     3    1
     4    13    12    1
     5    25    24    1
     6    24    23    3
     7    12    11    3
     8    44    40    1
     9    15    16   ar
    10    15     5    1
    11    15    14   ar
    12    23    17    1
    13    18    17   ar
    14    18    27    1
    15    18    19   ar
    16    16    17   ar
    17     5     6   ar
    18     5     4   ar
    19    11     4    1
    20    27    28   ar
    21    27    26   ar
    22    14    19   ar
    23    14    21    1
    24    21    22    1
    25    34    33    1
    26    33    26    1
    27     6     1   ar
    28     4     3   ar
    29    28    29   ar
    30    26    31   ar
    31     1     2   ar
    32     1     9    1
    33     3     2   ar
    34     2     8    1
    35    29    30   ar
    36    29    35    1
    37    30    31   ar
    38    30    39    1
    39    35    36    3
    40    36    37    1
    41     9    10    1
    42    39    38   ar
    43    39    40   ar
    44    47    46    1
    45    46    38    1
    46    38    43   ar
    47    40    41   ar
    48    43    42   ar
    49    41    42   ar
    50    41    48    1
    51    42    45    1
    52    48    49    3
    53    49    50    1
