@<TRIPOS>MOLECULE
mol_data/noopt/geoms/mol2/6fe6ef(80)4ff(100)12ai(90).out
 48 50 0 0 0
SMALL
GASTEIGER

@<TRIPOS>ATOM
      1 C          -4.5775   -2.0270    0.0001 C.ar    1  LIG1        0.2129
      2 C          -3.1706   -2.0270    0.0001 C.ar    1  LIG1        0.0010
      3 C          -2.5039   -0.8004    0.0001 C.ar    1  LIG1       -0.0392
      4 C          -3.2580    0.3743   -0.0001 C.ar    1  LIG1        0.0509
      5 C          -4.6612    0.2715   -0.0003 C.ar    1  LIG1        0.0928
      6 N          -5.3207   -0.9034   -0.0001 N.ar    1  LIG1       -0.2117
      7 H          -1.4054   -0.7607   -0.0009 H       1  LIG1        0.0632
      8 H          -2.5135   -3.1487    0.0004 H       1  LIG1        0.0671
      9 O          -5.2431   -3.1437    0.0002 O.3     1  LIG1       -0.4924
     10 H          -4.6298   -3.8823    0.0002 H       1  LIG1        0.2937
     11 C          -2.6846    1.5410   -0.0003 C.1     1  LIG1       -0.0675
     12 C          -2.1548    2.6190   -0.0005 C.1     1  LIG1       -0.1138
     13 H          -1.6828    3.5793   -0.0006 H       1  LIG1        0.1232
     14 C          -5.9872    1.7981   -1.1959 C.ar    1  LIG1        0.1230
     15 C          -5.4065    1.3366   -0.0004 C.ar    1  LIG1        0.0361
     16 C          -5.6501    2.0468    1.1766 C.ar    1  LIG1       -0.0400
     17 C          -6.4579    3.1838    1.1205 C.ar    1  LIG1        0.0110
     18 C          -6.9934    3.5664   -0.1230 C.ar    1  LIG1        0.0838
     19 N          -6.7689    2.8929   -1.2682 N.ar    1  LIG1       -0.2370
     20 H          -5.2127    1.7170    2.1297 H       1  LIG1        0.0632
     21 C          -5.7897    1.1708   -2.3173 C.1     1  LIG1       -0.0491
     22 C          -5.6073    0.5912   -3.3534 C.1     1  LIG1       -0.1124
     23 H          -5.4448    0.0748   -4.2764 H       1  LIG1        0.1232
     24 O          -6.7145    3.8793    2.1885 O.3     2  HOH2       -0.2528
     25 H          -7.6268    3.7375    2.4517 H       0  HOH0        0.2528
     26 C          -8.3896    5.1383    0.9180 C.ar    1  LIG1        0.1269
     27 C          -9.2013    6.2773    0.7534 C.ar    1  LIG1       -0.0053
     28 C          -7.7514    4.6174   -0.2262 C.ar    1  LIG1        0.0459
     29 C          -9.3710    6.8734   -0.4943 C.ar    1  LIG1        0.0621
     30 H          -9.7032    6.6954    1.6231 H       1  LIG1        0.0662
     31 C          -7.9204    5.2121   -1.4720 C.ar    1  LIG1       -0.0068
     32 C          -8.7305    6.3433   -1.6150 C.ar    1  LIG1        0.1283
     33 H          -7.4177    4.7916   -2.3392 H       1  LIG1        0.0662
     34 O          -8.2697    4.6268    2.1071 O.3     1  LIG1       -0.5061
     35 H          -7.3591    4.7073    2.4002 H       1  LIG1        0.2922
     36 O          -8.8850    6.8949   -2.7821 O.3     1  LIG1       -0.5060
     37 H          -9.7945    6.7868   -3.0697 H       1  LIG1        0.2922
     38 C         -10.1276    7.9241   -0.6100 C.ar    1  LIG1        0.1387
     39 C         -10.7503    8.7889    0.2660 C.ar    1  LIG1       -0.0129
     40 C         -11.4523    9.7639   -0.5423 C.ar    1  LIG1       -0.0121
     41 C         -11.2119    9.4302   -1.8593 C.ar    1  LIG1        0.0955
     42 O         -10.3974    8.2992   -1.9269 O.2     1  LIG1       -0.4625
     43 H         -11.5592    9.9126   -3.0154 H       1  LIG1        0.1032
     44 H         -10.7280    8.7578    1.5654 H       1  LIG1        0.0658
     45 C         -12.1644   10.7529   -0.0886 C.3     1  LIG1       -0.0367
     46 H         -12.9658   10.3708    0.5085 H       1  LIG1        0.0278
     47 H         -12.5654   11.3097   -0.9096 H       1  LIG1        0.0278
     48 H         -11.5478   11.3918    0.5084 H       1  LIG1        0.0278
@<TRIPOS>BOND
     1    23    22    1
     2    22    21    3
     3    37    36    1
     4    43    41    1
     5    36    32    1
     6    33    31    1
     7    21    14    1
     8    42    41   ar
     9    42    38   ar
    10    41    40   ar
    11    32    31   ar
    12    32    29   ar
    13    31    28   ar
    14    19    14   ar
    15    19    18   ar
    16    14    15   ar
    17    47    45    1
    18    38    29    1
    19    38    39   ar
    20    40    45    1
    21    40    39   ar
    22    29    27   ar
    23    28    18    1
    24    28    26   ar
    25    18    17   ar
    26    45    48    1
    27    45    46    1
    28     7     3    1
    29    13    12    1
    30    12    11    3
    31    15     5    1
    32    15    16   ar
    33    11     4    1
    34     5     6   ar
    35     5     4   ar
    36     6     1   ar
    37     4     3   ar
    38     3     2   ar
    39     2     1   ar
    40     2     8    1
    41     1     9    1
    42     9    10    1
    43    39    44    1
    44    27    26   ar
    45    27    30    1
    46    26    34    1
    47    17    16   ar
    48    16    20    1
    49    34    35    1
    50    24    25    1
