@<TRIPOS>MOLECULE
mol_data/noopt/geoms/mol2/6ff6ff-6ff-6ff-.out
 46 49 0 0 0
SMALL
GASTEIGER

@<TRIPOS>ATOM
      1 C          -4.5775   -2.0270    0.0001 C.ar    1  LIG1        0.2130
      2 C          -3.1706   -2.0270    0.0001 C.ar    1  LIG1        0.0033
      3 C          -2.5039   -0.8004    0.0001 C.ar    1  LIG1       -0.0130
      4 C          -3.2580    0.3743   -0.0001 C.ar    1  LIG1        0.1431
      5 C          -4.6612    0.2715   -0.0003 C.ar    1  LIG1        0.1212
      6 N          -5.3207   -0.9034   -0.0001 N.ar    1  LIG1       -0.2092
      7 H          -1.4054   -0.7607   -0.0009 H       1  LIG1        0.0656
      8 H          -2.5135   -3.1487    0.0004 H       1  LIG1        0.0672
      9 O          -5.2431   -3.1437    0.0002 O.3     1  LIG1       -0.4924
     10 H          -4.6298   -3.8823    0.0002 H       1  LIG1        0.2937
     11 O          -2.6846    1.5410   -0.0003 O.3     1  LIG1       -0.5046
     12 H          -3.3554    2.2278   -0.0003 H       1  LIG1        0.2922
     13 C          -4.8196    2.6153   -0.0003 C.ar    1  LIG1        0.2226
     14 C          -5.4065    1.3366   -0.0004 C.ar    1  LIG1        0.0689
     15 C          -6.7994    1.2424   -0.0003 C.ar    1  LIG1       -0.0036
     16 C          -7.5524    2.4178   -0.0003 C.ar    1  LIG1        0.1438
     17 C          -6.8736    3.6502   -0.0004 C.ar    1  LIG1        0.1213
     18 N          -5.5307    3.7594   -0.0003 N.ar    1  LIG1       -0.2086
     19 H          -7.2937    0.2606   -0.0014 H       1  LIG1        0.0663
     20 O          -3.5270    2.7543   -0.0003 O.3     1  LIG1       -0.4919
     21 H          -3.3053    3.6884   -0.0003 H       1  LIG1        0.2937
     22 O          -8.8520    2.3834   -0.0004 O.3     1  LIG1       -0.5046
     23 H          -9.1484    1.4703   -0.0004 H       1  LIG1        0.2922
     24 C          -6.8427    5.9991   -0.0000 C.ar    1  LIG1        0.2226
     25 C          -7.5307    4.7719   -0.0003 C.ar    1  LIG1        0.0689
     26 C          -8.9267    4.7902   -0.0001 C.ar    1  LIG1       -0.0036
     27 C          -9.5826    6.0224    0.0002 C.ar    1  LIG1        0.1438
     28 C          -8.8067    7.1961    0.0002 C.ar    1  LIG1        0.1213
     29 N          -7.4594    7.1968    0.0002 N.ar    1  LIG1       -0.2086
     30 H          -9.4985    3.8514   -0.0012 H       1  LIG1        0.0663
     31 O          -5.5432    6.0336   -0.0001 O.3     1  LIG1       -0.4919
     32 H          -5.2469    6.9467   -0.0001 H       1  LIG1        0.2937
     33 O         -10.8807    6.0928    0.0002 O.3     1  LIG1       -0.5046
     34 H         -11.2497    5.2065    0.0002 H       1  LIG1        0.2922
     35 C          -8.5867    9.5349    0.0008 C.ar    1  LIG1        0.2220
     36 C          -9.3714    8.3671    0.0005 C.ar    1  LIG1        0.0688
     37 C         -10.7613    8.4977    0.0008 C.ar    1  LIG1       -0.0043
     38 C         -11.3158    9.7788    0.0012 C.ar    1  LIG1        0.1357
     39 C         -10.4479   10.8862    0.0013 C.ar    1  LIG1        0.0728
     40 N          -9.1049   10.7784    0.0012 N.ar    1  LIG1       -0.2172
     41 H         -11.4069    7.6081   -0.0005 H       1  LIG1        0.0663
     42 H         -10.9164   12.0988    0.0018 H       1  LIG1        0.0868
     43 O          -7.2886    9.4646    0.0006 O.3     1  LIG1       -0.4919
     44 H          -6.9197   10.3509    0.0006 H       1  LIG1        0.2937
     45 O         -12.6041    9.9535    0.0014 O.3     1  LIG1       -0.5052
     46 H         -13.0432    9.0998    0.0014 H       1  LIG1        0.2922
@<TRIPOS>BOND
     1    19    15    1
     2    30    26    1
     3     7     3    1
     4    41    37    1
     5    23    22    1
     6    14    15   ar
     7    14     5    1
     8    14    13   ar
     9    22    16    1
    10    17    16   ar
    11    17    25    1
    12    17    18   ar
    13    12    11    1
    14    15    16   ar
    15     5     6   ar
    16     5     4   ar
    17    11     4    1
    18    25    26   ar
    19    25    24   ar
    20    13    18   ar
    21    13    20    1
    22    20    21    1
    23    32    31    1
    24    31    24    1
    25     6     1   ar
    26     4     3   ar
    27    26    27   ar
    28    24    29   ar
    29     1     2   ar
    30     1     9    1
    31     3     2   ar
    32     2     8    1
    33    27    28   ar
    34    27    33    1
    35    28    29   ar
    36    28    36    1
    37    33    34    1
    38     9    10    1
    39    36    37   ar
    40    36    35   ar
    41    44    43    1
    42    43    35    1
    43    37    38   ar
    44    35    40   ar
    45    38    39   ar
    46    38    45    1
    47    40    39   ar
    48    39    42    1
    49    45    46    1
