@<TRIPOS>MOLECULE
mol_data/noopt/geoms/mol2/6ff6ff-4ff6ff.out
 47 50 0 0 0
SMALL
GASTEIGER

@<TRIPOS>ATOM
      1 C          -4.5775   -2.0270    0.0001 C.ar    1  LIG1        0.2130
      2 C          -3.1706   -2.0270    0.0001 C.ar    1  LIG1        0.0033
      3 C          -2.5039   -0.8004    0.0001 C.ar    1  LIG1       -0.0130
      4 C          -3.2580    0.3743   -0.0001 C.ar    1  LIG1        0.1431
      5 C          -4.6612    0.2715   -0.0003 C.ar    1  LIG1        0.1212
      6 N          -5.3207   -0.9034   -0.0001 N.ar    1  LIG1       -0.2092
      7 H          -1.4054   -0.7607   -0.0009 H       1  LIG1        0.0656
      8 H          -2.5135   -3.1487    0.0004 H       1  LIG1        0.0672
      9 O          -5.2431   -3.1437    0.0002 O.3     1  LIG1       -0.4924
     10 H          -4.6298   -3.8823    0.0002 H       1  LIG1        0.2937
     11 O          -2.6846    1.5410   -0.0003 O.3     1  LIG1       -0.5046
     12 H          -3.3554    2.2278   -0.0003 H       1  LIG1        0.2922
     13 C          -4.8196    2.6153   -0.0003 C.ar    1  LIG1        0.2226
     14 C          -5.4065    1.3366   -0.0004 C.ar    1  LIG1        0.0689
     15 C          -6.7994    1.2424   -0.0003 C.ar    1  LIG1       -0.0036
     16 C          -7.5524    2.4178   -0.0003 C.ar    1  LIG1        0.1437
     17 C          -6.8736    3.6502   -0.0004 C.ar    1  LIG1        0.1197
     18 N          -5.5307    3.7594   -0.0003 N.ar    1  LIG1       -0.2087
     19 H          -7.2937    0.2606   -0.0014 H       1  LIG1        0.0663
     20 O          -3.5270    2.7543   -0.0003 O.3     1  LIG1       -0.4919
     21 H          -3.3053    3.6884   -0.0003 H       1  LIG1        0.2937
     22 O          -8.8520    2.3834   -0.0004 O.3     1  LIG1       -0.5046
     23 H          -9.1484    1.4703   -0.0004 H       1  LIG1        0.2922
     24 C          -6.8310    5.9958    0.0005 C.ar    1  LIG1        0.1269
     25 C          -7.5886    7.1830    0.0022 C.ar    1  LIG1       -0.0082
     26 C          -7.5307    4.7718   -0.0003 C.ar    1  LIG1        0.0489
     27 C          -8.9814    7.1551    0.0023 C.ar    1  LIG1        0.0322
     28 H          -7.0688    8.1385    0.0030 H       1  LIG1        0.0661
     29 C          -8.9211    4.7434   -0.0001 C.ar    1  LIG1       -0.0068
     30 C          -9.6560    5.9336    0.0011 C.ar    1  LIG1        0.1256
     31 H          -9.4376    3.7869   -0.0006 H       1  LIG1        0.0662
     32 O          -5.5341    6.0859    0.0002 O.3     1  LIG1       -0.5061
     33 H          -5.2771    7.0109    0.0001 H       1  LIG1        0.2922
     34 O         -10.9556    5.9008    0.0014 O.3     1  LIG1       -0.5061
     35 H         -11.2531    4.9880    0.0015 H       1  LIG1        0.2922
     36 C         -11.0562    8.2567    0.0047 C.ar    1  LIG1        0.2205
     37 C          -9.6493    8.2703    0.0037 C.ar    1  LIG1        0.0505
     38 C          -8.9946    9.5034    0.0047 C.ar    1  LIG1       -0.0058
     39 C          -9.7600   10.6707    0.0063 C.ar    1  LIG1        0.1357
     40 C         -11.1621   10.5543    0.0069 C.ar    1  LIG1        0.0728
     41 N         -11.8102    9.3730    0.0062 N.ar    1  LIG1       -0.2173
     42 H          -7.8965    9.5537    0.0030 H       1  LIG1        0.0662
     43 H         -11.9177   11.6121    0.0085 H       1  LIG1        0.0868
     44 O         -11.7109    7.1336    0.0040 O.3     1  LIG1       -0.4920
     45 H         -11.0905    6.4010    0.0038 H       1  LIG1        0.2937
     46 O          -9.1979   11.8429    0.0071 O.3     1  LIG1       -0.5052
     47 H          -9.8754   12.5231    0.0072 H       1  LIG1        0.2922
@<TRIPOS>BOND
     1    19    15    1
     2     7     3    1
     3    31    29    1
     4    23    22    1
     5    14    15   ar
     6    14     5    1
     7    14    13   ar
     8    22    16    1
     9    17    16   ar
    10    17    26    1
    11    17    18   ar
    12    12    11    1
    13    15    16   ar
    14     5     6   ar
    15     5     4   ar
    16    11     4    1
    17    26    29   ar
    18    26    24   ar
    19    13    18   ar
    20    13    20    1
    21    20    21    1
    22     6     1   ar
    23     4     3   ar
    24    29    30   ar
    25    33    32    1
    26     1     2   ar
    27     1     9    1
    28     3     2   ar
    29     2     8    1
    30    32    24    1
    31     9    10    1
    32    24    25   ar
    33    30    34    1
    34    30    27   ar
    35    34    35    1
    36    25    27   ar
    37    25    28    1
    38    27    37    1
    39    42    38    1
    40    37    36   ar
    41    37    38   ar
    42    45    44    1
    43    44    36    1
    44    36    41   ar
    45    38    39   ar
    46    41    40   ar
    47    39    40   ar
    48    39    46    1
    49    40    43    1
    50    46    47    1
