@<TRIPOS>MOLECULE
mol_data/noopt/geoms/mol2/6ff6ff6ff-6ff-.out
 46 49 0 0 0
SMALL
GASTEIGER

@<TRIPOS>ATOM
      1 C          -4.5775   -2.0270    0.0001 C.ar    1  LIG1        0.2130
      2 C          -3.1706   -2.0270    0.0001 C.ar    1  LIG1        0.0033
      3 C          -2.5039   -0.8004    0.0001 C.ar    1  LIG1       -0.0130
      4 C          -3.2580    0.3743   -0.0001 C.ar    1  LIG1        0.1431
      5 C          -4.6612    0.2715   -0.0003 C.ar    1  LIG1        0.1212
      6 N          -5.3207   -0.9034   -0.0001 N.ar    1  LIG1       -0.2092
      7 H          -1.4054   -0.7607   -0.0009 H       1  LIG1        0.0656
      8 H          -2.5135   -3.1487    0.0004 H       1  LIG1        0.0672
      9 O          -5.2431   -3.1437    0.0002 O.3     1  LIG1       -0.4924
     10 H          -4.6298   -3.8823    0.0002 H       1  LIG1        0.2937
     11 O          -2.6846    1.5410   -0.0003 O.3     1  LIG1       -0.5046
     12 H          -3.3554    2.2278   -0.0003 H       1  LIG1        0.2922
     13 C          -6.8088    1.2233   -0.0003 C.ar    1  LIG1        0.2226
     14 C          -5.4065    1.3366   -0.0004 C.ar    1  LIG1        0.0689
     15 C          -4.8408    2.6129   -0.0003 C.ar    1  LIG1       -0.0036
     16 C          -5.6871    3.7231   -0.0003 C.ar    1  LIG1        0.1438
     17 C          -7.0774    3.5076   -0.0004 C.ar    1  LIG1        0.1213
     18 N          -7.6401    2.2834   -0.0003 N.ar    1  LIG1       -0.2086
     19 H          -3.7491    2.7410   -0.0014 H       1  LIG1        0.0663
     20 O          -7.3823    0.0566   -0.0003 O.3     1  LIG1       -0.4919
     21 H          -6.7115   -0.6302   -0.0003 H       1  LIG1        0.2937
     22 O          -5.2095    4.9322   -0.0004 O.3     1  LIG1       -0.5046
     23 H          -5.9335    5.5627   -0.0004 H       1  LIG1        0.2922
     24 C          -7.4241    5.8310   -0.0000 C.ar    1  LIG1        0.2226
     25 C          -7.9061    4.5092   -0.0003 C.ar    1  LIG1        0.0689
     26 C          -9.2869    4.3031   -0.0001 C.ar    1  LIG1       -0.0036
     27 C         -10.1321    5.4140    0.0002 C.ar    1  LIG1        0.1438
     28 C          -9.5548    6.6971    0.0002 C.ar    1  LIG1        0.1213
     29 N          -8.2251    6.9141    0.0002 N.ar    1  LIG1       -0.2086
     30 H          -9.7005    3.2847   -0.0012 H       1  LIG1        0.0663
     31 O          -6.1469    6.0737   -0.0001 O.3     1  LIG1       -0.4919
     32 H          -6.0011    7.0226   -0.0001 H       1  LIG1        0.2937
     33 O         -11.4247    5.2750    0.0002 O.3     1  LIG1       -0.5046
     34 H         -11.6466    4.3410    0.0002 H       1  LIG1        0.2922
     35 C          -9.7132    9.0408    0.0008 C.ar    1  LIG1        0.2220
     36 C         -10.3001    7.7622    0.0005 C.ar    1  LIG1        0.0688
     37 C         -11.6930    7.6680    0.0008 C.ar    1  LIG1       -0.0043
     38 C         -12.4461    8.8434    0.0012 C.ar    1  LIG1        0.1357
     39 C         -11.7673   10.0758    0.0013 C.ar    1  LIG1        0.0728
     40 N         -10.4244   10.1850    0.0012 N.ar    1  LIG1       -0.2172
     41 H         -12.1874    6.6862   -0.0005 H       1  LIG1        0.0663
     42 H         -12.4244   11.1974    0.0018 H       1  LIG1        0.0868
     43 O          -8.4207    9.1799    0.0006 O.3     1  LIG1       -0.4919
     44 H          -8.1989   10.1139    0.0006 H       1  LIG1        0.2937
     45 O         -13.7456    8.8089    0.0013 O.3     1  LIG1       -0.5052
     46 H         -14.0420    7.8958    0.0014 H       1  LIG1        0.2922
@<TRIPOS>BOND
     1    19    15    1
     2    30    26    1
     3     7     3    1
     4    41    37    1
     5    14     5    1
     6    14    13   ar
     7    14    15   ar
     8    23    22    1
     9    17    18   ar
    10    17    25    1
    11    17    16   ar
    12    22    16    1
    13    12    11    1
    14     5     6   ar
    15     5     4   ar
    16    11     4    1
    17    13    20    1
    18    13    18   ar
    19    15    16   ar
    20    20    21    1
    21    25    26   ar
    22    25    24   ar
    23    32    31    1
    24    31    24    1
    25     6     1   ar
    26     4     3   ar
    27    26    27   ar
    28    24    29   ar
    29     1     2   ar
    30     1     9    1
    31     3     2   ar
    32     2     8    1
    33    27    33    1
    34    27    28   ar
    35    33    34    1
    36    28    29   ar
    37    28    36    1
    38     9    10    1
    39    36    37   ar
    40    36    35   ar
    41    44    43    1
    42    43    35    1
    43    37    38   ar
    44    35    40   ar
    45    38    39   ar
    46    38    45    1
    47    40    39   ar
    48    39    42    1
    49    45    46    1
