@<TRIPOS>MOLECULE
mol_data/noopt/geoms/mol2/6ff6ff.out
 24 25 0 0 0
SMALL
GASTEIGER

@<TRIPOS>ATOM
      1 C          -4.5775   -2.0270    0.0001 C.ar    1  LIG1        0.2130
      2 C          -3.1706   -2.0270    0.0001 C.ar    1  LIG1        0.0033
      3 C          -2.5039   -0.8004    0.0001 C.ar    1  LIG1       -0.0130
      4 C          -3.2580    0.3743   -0.0001 C.ar    1  LIG1        0.1431
      5 C          -4.6612    0.2715   -0.0003 C.ar    1  LIG1        0.1212
      6 N          -5.3207   -0.9034   -0.0001 N.ar    1  LIG1       -0.2092
      7 H          -1.4054   -0.7607   -0.0009 H       1  LIG1        0.0656
      8 H          -2.5135   -3.1487    0.0004 H       1  LIG1        0.0672
      9 O          -5.2431   -3.1437    0.0002 O.3     1  LIG1       -0.4924
     10 H          -4.6298   -3.8823    0.0002 H       1  LIG1        0.2937
     11 O          -2.6846    1.5410   -0.0003 O.3     1  LIG1       -0.5046
     12 H          -3.3554    2.2278   -0.0003 H       1  LIG1        0.2922
     13 C          -6.8088    1.2233   -0.0003 C.ar    1  LIG1        0.2220
     14 C          -5.4065    1.3366   -0.0004 C.ar    1  LIG1        0.0688
     15 C          -4.8408    2.6129   -0.0003 C.ar    1  LIG1       -0.0043
     16 C          -5.6871    3.7231   -0.0003 C.ar    1  LIG1        0.1357
     17 C          -7.0774    3.5076   -0.0004 C.ar    1  LIG1        0.0728
     18 N          -7.6401    2.2834   -0.0003 N.ar    1  LIG1       -0.2172
     19 H          -3.7491    2.7410   -0.0014 H       1  LIG1        0.0663
     20 H          -7.9061    4.5092   -0.0003 H       1  LIG1        0.0868
     21 O          -7.3823    0.0566   -0.0003 O.3     1  LIG1       -0.4919
     22 H          -6.7115   -0.6302   -0.0003 H       1  LIG1        0.2937
     23 O          -5.2095    4.9322   -0.0004 O.3     1  LIG1       -0.5052
     24 H          -5.9335    5.5627   -0.0004 H       1  LIG1        0.2922
@<TRIPOS>BOND
     1    19    15    1
     2     7     3    1
     3    14     5    1
     4    14    13   ar
     5    14    15   ar
     6    24    23    1
     7    17    18   ar
     8    17    20    1
     9    17    16   ar
    10    23    16    1
    11    12    11    1
    12     5     6   ar
    13     5     4   ar
    14    11     4    1
    15    13    21    1
    16    13    18   ar
    17    15    16   ar
    18    21    22    1
    19     6     1   ar
    20     4     3   ar
    21     1     2   ar
    22     1     9    1
    23     3     2   ar
    24     2     8    1
    25     9    10    1
