@<TRIPOS>MOLECULE
mol_data/noopt/geoms/mol2/6ff6ff-.out
 24 25 0 0 0
SMALL
GASTEIGER

@<TRIPOS>ATOM
      1 C          -4.5775   -2.0270    0.0001 C.ar    1  LIG1        0.2130
      2 C          -3.1706   -2.0270    0.0001 C.ar    1  LIG1        0.0033
      3 C          -2.5039   -0.8004    0.0001 C.ar    1  LIG1       -0.0130
      4 C          -3.2580    0.3743   -0.0001 C.ar    1  LIG1        0.1431
      5 C          -4.6612    0.2715   -0.0003 C.ar    1  LIG1        0.1212
      6 N          -5.3207   -0.9034   -0.0001 N.ar    1  LIG1       -0.2092
      7 H          -1.4054   -0.7607   -0.0009 H       1  LIG1        0.0656
      8 H          -2.5135   -3.1487    0.0004 H       1  LIG1        0.0672
      9 O          -5.2431   -3.1437    0.0002 O.3     1  LIG1       -0.4924
     10 H          -4.6298   -3.8823    0.0002 H       1  LIG1        0.2937
     11 O          -2.6846    1.5410   -0.0003 O.3     1  LIG1       -0.5046
     12 H          -3.3554    2.2278   -0.0003 H       1  LIG1        0.2922
     13 C          -4.8196    2.6153   -0.0003 C.ar    1  LIG1        0.2220
     14 C          -5.4065    1.3366   -0.0004 C.ar    1  LIG1        0.0688
     15 C          -6.7994    1.2424   -0.0003 C.ar    1  LIG1       -0.0043
     16 C          -7.5524    2.4178   -0.0003 C.ar    1  LIG1        0.1357
     17 C          -6.8736    3.6502   -0.0004 C.ar    1  LIG1        0.0728
     18 N          -5.5307    3.7594   -0.0003 N.ar    1  LIG1       -0.2172
     19 H          -7.2937    0.2606   -0.0014 H       1  LIG1        0.0663
     20 H          -7.5307    4.7719   -0.0003 H       1  LIG1        0.0868
     21 O          -3.5270    2.7543   -0.0003 O.3     1  LIG1       -0.4919
     22 H          -3.3053    3.6884   -0.0003 H       1  LIG1        0.2937
     23 O          -8.8520    2.3834   -0.0004 O.3     1  LIG1       -0.5052
     24 H          -9.1484    1.4703   -0.0004 H       1  LIG1        0.2922
@<TRIPOS>BOND
     1    19    15    1
     2     7     3    1
     3    24    23    1
     4    14    15   ar
     5    14     5    1
     6    14    13   ar
     7    23    16    1
     8    17    16   ar
     9    17    20    1
    10    17    18   ar
    11    12    11    1
    12    15    16   ar
    13     5     6   ar
    14     5     4   ar
    15    11     4    1
    16    13    18   ar
    17    13    21    1
    18    21    22    1
    19     6     1   ar
    20     4     3   ar
    21     1     2   ar
    22     1     9    1
    23     3     2   ar
    24     2     8    1
    25     9    10    1
