@<TRIPOS>MOLECULE
mol_data/noopt/geoms/mol2/6fh13ah6de-13dh.out
 47 51 0 0 0
SMALL
GASTEIGER

@<TRIPOS>ATOM
      1 C          -4.5775   -2.0270    0.0001 C.ar    1  LIG1        0.2129
      2 C          -3.1706   -2.0270    0.0001 C.ar    1  LIG1        0.0016
      3 C          -2.5039   -0.8004    0.0001 C.ar    1  LIG1       -0.0339
      4 C          -3.2580    0.3743   -0.0001 C.ar    1  LIG1        0.0526
      5 C          -4.6612    0.2715   -0.0003 C.ar    1  LIG1        0.1115
      6 N          -5.3207   -0.9034   -0.0001 N.ar    1  LIG1       -0.2097
      7 H          -1.4054   -0.7607   -0.0009 H       1  LIG1        0.0638
      8 H          -2.5135   -3.1487    0.0004 H       1  LIG1        0.0671
      9 O          -5.2431   -3.1437    0.0002 O.3     1  LIG1       -0.4924
     10 H          -4.6298   -3.8823    0.0002 H       1  LIG1        0.2937
     11 N          -2.6846    1.5410   -0.0003 N.pl3   1  LIG1       -0.3563
     12 H          -1.8048    1.4799   -0.4718 H       1  LIG1        0.1424
     13 H          -3.2703    2.2002   -0.4718 H       1  LIG1        0.1424
     14 C          -5.4065    1.3366   -0.0004 C.ar    1  LIG1        0.0691
     15 C          -5.0646    2.6523   -0.0008 C.ar    1  LIG1       -0.0135
     16 C          -6.2797    3.4100    0.0004 C.ar    1  LIG1        0.0509
     17 C          -7.3108    2.5240   -0.0003 C.ar    1  LIG1        0.0706
     18 N          -6.7806    1.2535   -0.0003 N.ar    1  LIG1       -0.3514
     19 H          -7.3066    0.4100   -0.0008 H       1  LIG1        0.1660
     20 H          -3.8559    3.1308   -0.0007 H       1  LIG1        0.0658
     21 N          -6.3821    4.7060    0.0014 N.pl3   1  LIG1       -0.3563
     22 H          -5.5944    5.1029   -0.4697 H       1  LIG1        0.1424
     23 H          -7.2223    4.9744   -0.4698 H       1  LIG1        0.1424
     24 C          -9.4850    1.6348   -0.0205 C.2     1  LIG1        0.1454
     25 C          -8.5952    2.7244    0.0002 C.2     1  LIG1        0.0364
     26 C          -9.1237    4.0164    0.0215 C.2     1  LIG1       -0.0362
     27 C         -10.5106    4.1753    0.0211 C.2     1  LIG1        0.0329
     28 C         -11.3184    3.0235   -0.0007 C.3     1  LIG1        0.1699
     29 N         -10.8254    1.7698   -0.0212 N.2     1  LIG1       -0.2511
     30 H          -8.4597    4.8923    0.0370 H       1  LIG1        0.0635
     31 N          -8.6493   -0.6643   -0.0584 N.1     1  LIG1       -0.1893
     32 C          -9.0410    0.4132   -0.0407 C.1     1  LIG1        0.1194
     33 C         -11.0517    5.3571    0.0403 C.1     1  LIG1       -0.0967
     34 C         -11.5516    6.4492    0.0579 C.2     1  LIG1        0.0548
     35 H         -11.9970    7.4220    0.0737 H       1  LIG1        0.0888
     36 C         -12.6148    3.1199   -0.0019 C.ar    1  LIG1        0.0594
     37 C         -13.4177    4.2167    0.0136 C.ar    1  LIG1        0.0267
     38 C         -14.7731    3.7547    0.0047 C.ar    1  LIG1        0.0480
     39 C         -14.7389    2.3959   -0.0175 C.ar    1  LIG1        0.0232
     40 N         -13.4195    2.0030   -0.0212 N.ar    1  LIG1       -0.3602
     41 H         -13.0987    1.0623   -0.0361 H       1  LIG1        0.1652
     42 H         -15.7065    1.5279   -0.0328 H       1  LIG1        0.0826
     43 N         -12.6765    6.5480    0.0525 N.pl3   1  LIG1       -0.2335
     44 C         -13.0239    5.4554    0.0343 C.3     1  LIG1        0.1409
     45 N         -15.8417    4.4950    0.0154 N.pl3   1  LIG1       -0.3565
     46 H         -15.6539    5.3582   -0.4532 H       1  LIG1        0.1424
     47 H         -16.5838    4.0159   -0.4532 H       1  LIG1        0.1424
@<TRIPOS>BOND
     1    13    11    1
     2    12    11    1
     3    23    21    1
     4    22    21    1
     5    47    45    1
     6    46    45    1
     7    31    32    3
     8    32    24    1
     9    41    40    1
    10    42    39    1
    11    29    24    2
    12    29    28    1
    13    40    39   ar
    14    40    36   ar
    15    24    25    1
    16    39    38   ar
    17    36    28    1
    18    36    37   ar
    19     7     3    1
    20    15    20    1
    21    15    14   ar
    22    15    16   ar
    23    19    18    1
    24    28    27    1
    25    14     5    1
    26    14    18   ar
    27    11     4    1
    28     5     4   ar
    29     5     6   ar
    30    18    17   ar
    31    17    25    1
    32    17    16   ar
    33     4     3   ar
    34     6     1   ar
    35     2     3   ar
    36     2     1   ar
    37     2     8    1
    38     1     9    1
    39     9    10    1
    40    25    26    2
    41    16    21    1
    42    38    37   ar
    43    38    45    1
    44    37    44    1
    45    27    26    1
    46    27    33    2
    47    26    30    1
    48    44    43    1
    49    33    34    2
    50    43    34    1
    51    34    35    1
