@<TRIPOS>MOLECULE
mol_data/noopt/geoms/mol2/6fh13dl-6fe12ae.out
 48 51 0 0 0
SMALL
GASTEIGER

@<TRIPOS>ATOM
      1 C          -4.5775   -2.0270    0.0001 C.ar    1  LIG1        0.2129
      2 C          -3.1706   -2.0270    0.0001 C.ar    1  LIG1        0.0016
      3 C          -2.5039   -0.8004    0.0001 C.ar    1  LIG1       -0.0339
      4 C          -3.2580    0.3743   -0.0001 C.ar    1  LIG1        0.0526
      5 C          -4.6612    0.2715   -0.0003 C.ar    1  LIG1        0.1128
      6 N          -5.3207   -0.9034   -0.0001 N.ar    1  LIG1       -0.2096
      7 H          -1.4054   -0.7607   -0.0009 H       1  LIG1        0.0638
      8 H          -2.5135   -3.1487    0.0004 H       1  LIG1        0.0671
      9 O          -5.2431   -3.1437    0.0002 O.3     1  LIG1       -0.4924
     10 H          -4.6298   -3.8823    0.0002 H       1  LIG1        0.2937
     11 N          -2.6846    1.5410   -0.0003 N.pl3   1  LIG1       -0.3563
     12 H          -1.8048    1.4799   -0.4718 H       1  LIG1        0.1424
     13 H          -3.2703    2.2002   -0.4718 H       1  LIG1        0.1424
     14 C          -5.4065    1.3366   -0.0004 C.ar    1  LIG1        0.0886
     15 C          -5.0647    2.6523    0.0158 C.ar    1  LIG1        0.1207
     16 C          -6.2798    3.4100    0.0080 C.ar    1  LIG1        0.1634
     17 C          -7.3107    2.5241   -0.0144 C.ar    1  LIG1        0.0957
     18 N          -6.7805    1.2536   -0.0191 N.ar    1  LIG1       -0.3488
     19 H          -7.3063    0.4102   -0.0343 H       1  LIG1        0.1661
     20 N          -2.7901    3.5526    0.0542 N.1     1  LIG1       -0.1907
     21 C          -3.8561    3.1306    0.0362 C.1     1  LIG1        0.1050
     22 O          -6.3823    4.7059    0.0196 O.3     1  LIG1       -0.4917
     23 C          -5.0761    5.2879    0.0238 C.3     1  LIG1        0.0789
     24 H          -5.1608    6.3545    0.0332 H       1  LIG1        0.0660
     25 H          -4.5443    4.9647    0.8943 H       1  LIG1        0.0660
     26 H          -4.5456    4.9800   -0.8529 H       1  LIG1        0.0660
     27 C          -9.4849    1.6348   -0.0368 C.ar    1  LIG1        0.2225
     28 C          -8.5951    2.7246   -0.0290 C.ar    1  LIG1        0.0645
     29 C          -9.1234    4.0168   -0.0369 C.ar    1  LIG1       -0.0298
     30 C         -10.5102    4.1757   -0.0524 C.ar    1  LIG1        0.0545
     31 C         -11.3180    3.0238   -0.0594 C.ar    1  LIG1        0.1251
     32 N         -10.8252    1.7698   -0.0517 N.ar    1  LIG1       -0.2081
     33 H          -8.4594    4.8927   -0.0322 H       1  LIG1        0.0639
     34 O          -9.0409    0.4129   -0.0298 O.3     1  LIG1       -0.4919
     35 H          -8.0810    0.4208   -0.0281 H       1  LIG1        0.2937
     36 C         -11.0511    5.3577   -0.0605 C.1     1  LIG1       -0.0674
     37 C         -11.5510    6.4500   -0.0679 C.1     1  LIG1       -0.1138
     38 H         -11.9962    7.4229   -0.0746 H       1  LIG1        0.1232
     39 C         -12.6143    3.1202   -0.0737 C.ar    1  LIG1        0.1554
     40 C         -13.5234    4.1578   -0.0698 C.ar    1  LIG1        0.0011
     41 C         -14.8402    3.5557   -0.0944 C.ar    1  LIG1        0.0630
     42 C         -14.6483    2.1895   -0.1119 C.ar    1  LIG1        0.1080
     43 O         -13.2842    1.8961   -0.0997 O.2     1  LIG1       -0.4601
     44 H         -15.4227    1.1457   -0.1364 H       1  LIG1        0.1042
     45 H         -13.2745    5.4335   -0.0483 H       1  LIG1        0.0668
     46 C         -15.9685    4.2014   -0.0988 C.1     1  LIG1       -0.0665
     47 C         -17.0110    4.7980   -0.1028 C.1     1  LIG1       -0.1138
     48 H         -17.9397    5.3294   -0.1064 H       1  LIG1        0.1232
@<TRIPOS>BOND
     1    26    23    1
     2    13    11    1
     3    12    11    1
     4    44    42    1
     5    42    43   ar
     6    42    41   ar
     7    48    47    1
     8    47    46    3
     9    43    39   ar
    10    46    41    1
    11    41    40   ar
    12    38    37    1
    13    39    40   ar
    14    39    31    1
    15    40    45    1
    16    37    36    3
    17    36    30    1
    18    31    30   ar
    19    31    32   ar
    20    30    29   ar
    21    32    27   ar
    22    29    33    1
    23    29    28   ar
    24    27    34    1
    25    27    28   ar
    26    19    18    1
    27    34    35    1
    28    28    17    1
    29    18    17   ar
    30    18    14   ar
    31    17    16   ar
    32     7     3    1
    33    14     5    1
    34    14    15   ar
    35    11     4    1
    36     5     6   ar
    37     5     4   ar
    38     6     1   ar
    39     4     3   ar
    40     1     2   ar
    41     1     9    1
    42     3     2   ar
    43     2     8    1
    44     9    10    1
    45    16    15   ar
    46    16    22    1
    47    15    21    1
    48    22    23    1
    49    23    24    1
    50    23    25    1
    51    21    20    3
