@<TRIPOS>MOLECULE
mol_data/noopt/geoms/mol2/6fh4ei4id-12le.out
 56 59 0 0 0
SMALL
GASTEIGER

@<TRIPOS>ATOM
      1 C          -4.5775   -2.0270    0.0001 C.ar    1  LIG1        0.2129
      2 C          -3.1706   -2.0270    0.0001 C.ar    1  LIG1        0.0016
      3 C          -2.5039   -0.8004    0.0001 C.ar    1  LIG1       -0.0337
      4 C          -3.2580    0.3743   -0.0001 C.ar    1  LIG1        0.0540
      5 C          -4.6612    0.2715   -0.0003 C.ar    1  LIG1        0.0958
      6 N          -5.3207   -0.9034   -0.0001 N.ar    1  LIG1       -0.2112
      7 H          -1.4054   -0.7607   -0.0009 H       1  LIG1        0.0638
      8 H          -2.5135   -3.1487    0.0004 H       1  LIG1        0.0671
      9 O          -5.2431   -3.1437    0.0002 O.3     1  LIG1       -0.4924
     10 H          -4.6298   -3.8823    0.0002 H       1  LIG1        0.2937
     11 N          -2.6846    1.5410   -0.0003 N.pl3   1  LIG1       -0.3369
     12 H          -1.8048    1.4799   -0.4718 H       1  LIG1        0.1465
     13 H          -3.2703    2.2002   -0.4718 H       1  LIG1        0.0374
     14 C          -4.8076    2.6130    0.0003 C.ar    1  LIG1       -0.0320
     15 C          -5.6584    3.7353    0.0017 C.ar    1  LIG1       -0.0496
     16 C          -5.4065    1.3366   -0.0004 C.ar    1  LIG1        0.0061
     17 C          -7.0444    3.5952    0.0018 C.ar    1  LIG1       -0.0144
     18 H          -5.2172    4.7295    0.0025 H       1  LIG1        0.0627
     19 C          -6.7901    1.1962   -0.0003 C.ar    1  LIG1       -0.0487
     20 C          -7.6184    2.3233    0.0007 C.ar    1  LIG1       -0.0421
     21 H          -7.2278    0.2012   -0.0008 H       1  LIG1        0.0627
     22 C          -3.5222    2.8072    0.0000 C.3     1  LIG1        0.0134
     23 C          -2.3345    2.9867   -0.0002 C.3     1  LIG1        0.0469
     24 H          -1.2765    3.1465   -0.0005 H       1  LIG1        0.0522
     25 C          -8.9115    2.1859    0.0009 C.3     1  LIG1       -0.0391
     26 H          -9.1738    1.2795    0.5054 H       1  LIG1        0.0278
     27 H          -9.2663    2.1482   -1.0079 H       1  LIG1        0.0278
     28 H          -9.3583    3.0171    0.5053 H       1  LIG1        0.0278
     29 C          -7.2137    5.9350    0.0257 C.ar    1  LIG1       -0.0343
     30 C          -8.0753    7.0490    0.0276 C.ar    1  LIG1       -0.0014
     31 C          -7.8000    4.6530    0.0030 C.ar    1  LIG1       -0.0129
     32 C          -9.4598    6.8957    0.0071 C.ar    1  LIG1        0.0465
     33 H          -7.6439    8.0474    0.0452 H       1  LIG1        0.0194
     34 C          -9.1820    4.4994   -0.0174 C.ar    1  LIG1       -0.0356
     35 C         -10.0213    5.6184   -0.0156 C.ar    1  LIG1        0.0637
     36 H          -9.6100    3.5003   -0.0347 H       1  LIG1        0.0637
     37 C          -5.9301    6.1417    0.0452 C.3     1  LIG1       -0.0385
     38 H          -5.7242    7.0597    0.5549 H       1  LIG1        0.0278
     39 H          -5.5630    6.2008   -0.9582 H       1  LIG1        0.0278
     40 H          -5.4466    5.3345    0.5548 H       1  LIG1        0.0278
     41 N         -12.4513    5.3365   -0.0514 N.1     1  LIG1       -0.1908
     42 C         -11.3125    5.4686   -0.0346 C.1     1  LIG1        0.0999
     43 C         -10.2256    7.9461    0.0094 C.ar    1  LIG1        0.1843
     44 C         -10.0232    9.3107    0.0112 C.ar    1  LIG1        0.2397
     45 C         -11.3347    9.9246    0.0134 C.ar    1  LIG1        0.1097
     46 C         -12.2520    8.8939    0.0128 C.ar    1  LIG1        0.1118
     47 O         -11.5925    7.6643    0.0102 O.2     1  LIG1       -0.4576
     48 H         -13.5492    8.8084    0.0140 H       1  LIG1        0.1043
     49 O          -8.8895    9.9469    0.0110 O.3     1  LIG1       -0.2826
     50 C          -7.8136    9.0049    0.0108 C.3     2  LIG2       -0.0776
     51 H          -6.8807    9.5290    0.0105 H       1  LIG1        0.0194
     52 H          -7.8772    8.3906    0.8846 H       1  LIG1        0.0194
     53 H          -7.8777    8.3903   -0.8627 H       1  LIG1        0.0194
     54 C         -11.5730   11.2025    0.0154 C.1     1  LIG1       -0.0626
     55 C         -11.7933   12.3834    0.0173 C.1     1  LIG1       -0.1137
     56 H         -11.9894   13.4352    0.0190 H       1  LIG1        0.1232
@<TRIPOS>BOND
     1    27    25    1
     2    39    37    1
     3    53    50    1
     4    13    22    1
     5    12    11    1
     6    41    42    3
     7    36    34    1
     8    42    35    1
     9    34    35   ar
    10    34    31   ar
    11    35    32   ar
    12     7     3    1
    13    21    19    1
    14    24    23    1
    15    16    19   ar
    16    16     5    1
    17    16    14   ar
    18    19    20   ar
    19     5     4   ar
    20     5     6   ar
    21    11    23    1
    22    11     4    1
    23    23    22    1
    24     4     3   ar
    25     6     1   ar
    26    22    14    1
    27     2     3   ar
    28     2     1   ar
    29     2     8    1
    30     1     9    1
    31     9    10    1
    32    14    15   ar
    33    20    25    1
    34    20    17   ar
    35    25    28    1
    36    25    26    1
    37    15    17   ar
    38    15    18    1
    39    17    31    1
    40    31    29   ar
    41    32    43    1
    42    32    30   ar
    43    43    47   ar
    44    43    44   ar
    45    47    46   ar
    46    51    50    1
    47    50    33    1
    48    50    52    1
    49    49    44    1
    50    44    45   ar
    51    46    45   ar
    52    46    48    1
    53    45    54    1
    54    54    55    3
    55    55    56    1
    56    29    30   ar
    57    29    37    1
    58    37    40    1
    59    37    38    1
