@<TRIPOS>MOLECULE
mol_data/noopt/geoms/mol2/6fh6fh6fh-6fh.out
 50 50 0 0 0
SMALL
GASTEIGER

@<TRIPOS>ATOM
      1 C          -4.5775   -2.0270    0.0001 C.ar    1  LIG1        0.2129
      2 C          -3.1706   -2.0270    0.0001 C.ar    1  LIG1        0.0016
      3 C          -2.5039   -0.8004    0.0001 C.ar    1  LIG1       -0.0339
      4 C          -3.2580    0.3743   -0.0001 C.ar    1  LIG1        0.0513
      5 C          -4.6612    0.2715   -0.0003 C.ar    1  LIG1        0.1005
      6 N          -5.3207   -0.9034   -0.0001 N.ar    1  LIG1       -0.2110
      7 H          -1.4054   -0.7607   -0.0009 H       1  LIG1        0.0638
      8 H          -2.5135   -3.1487    0.0004 H       1  LIG1        0.0671
      9 O          -5.2431   -3.1437    0.0002 O.3     1  LIG1       -0.4924
     10 H          -4.6298   -3.8823    0.0002 H       1  LIG1        0.2937
     11 N          -2.6846    1.5410   -0.0003 N.pl3   1  LIG1       -0.3563
     12 H          -1.8048    1.4799   -0.4718 H       1  LIG1        0.1424
     13 H          -3.2703    2.2002   -0.4718 H       1  LIG1        0.1424
     14 C          -6.8088    1.2233   -0.0003 C.ar    1  LIG1        0.2224
     15 C          -5.4065    1.3366   -0.0004 C.ar    1  LIG1        0.0654
     16 C          -4.8408    2.6129   -0.0003 C.ar    1  LIG1       -0.0229
     17 C          -5.6871    3.7231   -0.0003 C.ar    1  LIG1        0.0712
     18 C          -7.0774    3.5076   -0.0004 C.ar    1  LIG1        0.0992
     19 N          -7.6401    2.2834   -0.0003 N.ar    1  LIG1       -0.2105
     20 H          -3.7491    2.7410   -0.0014 H       1  LIG1        0.0645
     21 O          -7.3823    0.0566   -0.0003 O.3     1  LIG1       -0.4919
     22 H          -6.7115   -0.6302   -0.0003 H       1  LIG1        0.2937
     23 N          -5.2095    4.9322   -0.0004 N.pl3   1  LIG1       -0.2644
     24 H          -4.3276    4.9422   -0.4718 H       1  LIG1        0.1700
     25 H          -5.8464    5.5421   -0.4718 H       0  HOH0        0.2052
     26 C          -7.4241    5.8310   -0.0000 C.ar    1  LIG1        0.0998
     27 C          -7.9061    4.5092   -0.0003 C.ar    1  LIG1        0.0316
     28 C          -9.2869    4.3031   -0.0001 C.ar    1  LIG1       -0.0259
     29 C         -10.1321    5.4140    0.0002 C.ar    1  LIG1        0.0710
     30 C          -9.5548    6.6971    0.0002 C.ar    1  LIG1        0.0961
     31 N          -8.2251    6.9141    0.0002 N.ar    1  LIG1       -0.2425
     32 H          -9.7005    3.2847   -0.0012 H       1  LIG1        0.0644
     33 O          -6.1469    6.0737   -0.0001 O.3     2  HOH2       -0.4105
     34 H          -6.0011    7.0226   -0.0001 H       0  HOH0        0.2052
     35 N         -11.4247    5.2750    0.0002 N.pl3   1  LIG1       -0.2644
     36 H         -11.8434    6.0512   -0.4712 H       0  HOH0        0.2528
     37 H         -11.6688    4.4276   -0.4713 H       1  LIG1        0.1700
     38 C         -11.7025    7.6489    0.0008 C.ar    1  LIG1        0.0991
     39 C         -10.3001    7.7622    0.0005 C.ar    1  LIG1        0.0314
     40 C          -9.7344    9.0385    0.0008 C.ar    1  LIG1       -0.0282
     41 C         -10.5807   10.1487    0.0012 C.ar    1  LIG1        0.0436
     42 C         -11.9710    9.9332    0.0013 C.ar    1  LIG1        0.0490
     43 N         -12.5338    8.7090    0.0012 N.ar    1  LIG1       -0.2509
     44 H          -8.6427    9.1666   -0.0004 H       1  LIG1        0.0644
     45 H         -12.7997   10.9348    0.0018 H       1  LIG1        0.0848
     46 O         -12.2760    6.4822    0.0006 O.3     3  HOH3       -0.2528
     47 H         -11.6052    5.7954    0.0006 H       4  UNK4        0.0000
     48 N         -10.1031   11.3578    0.0014 N.pl3   1  LIG1       -0.3568
     49 H          -9.2212   11.3679   -0.4700 H       1  LIG1        0.1424
     50 H         -10.7400   11.9678   -0.4700 H       1  LIG1        0.1424
@<TRIPOS>BOND
     1    25    33    1
     2    24    23    1
     3    13    11    1
     4    12    11    1
     5    37    35    1
     6    36    46    1
     7    50    48    1
     8    49    48    1
     9    20    16    1
    10    32    28    1
    11     7     3    1
    12    44    40    1
    13    15     5    1
    14    15    14   ar
    15    15    16   ar
    16    18    19   ar
    17    18    27    1
    18    18    17   ar
    19    23    17    1
    20    11     4    1
    21     5     6   ar
    22     5     4   ar
    23    14    21    1
    24    14    19   ar
    25    16    17   ar
    26    21    22    1
    27    27    28   ar
    28    27    26   ar
    29    34    33    1
    30     6     1   ar
    31     4     3   ar
    32    28    29   ar
    33    26    31   ar
    34     1     2   ar
    35     1     9    1
    36     2     3   ar
    37     2     8    1
    38    29    35    1
    39    29    30   ar
    40    30    31   ar
    41    30    39    1
    42     9    10    1
    43    39    38   ar
    44    39    40   ar
    45    38    43   ar
    46    40    41   ar
    47    43    42   ar
    48    41    42   ar
    49    41    48    1
    50    42    45    1
