@<TRIPOS>MOLECULE
mol_data/noopt/geoms/mol2/6fh6fh-6fh6fh-.out
 50 49 0 0 0
SMALL
GASTEIGER

@<TRIPOS>ATOM
      1 C          -4.5775   -2.0270    0.0001 C.ar    1  LIG1        0.2129
      2 C          -3.1706   -2.0270    0.0001 C.ar    1  LIG1        0.0016
      3 C          -2.5039   -0.8004    0.0001 C.ar    1  LIG1       -0.0323
      4 C          -3.2580    0.3743   -0.0001 C.ar    1  LIG1        0.0706
      5 C          -4.6612    0.2715   -0.0003 C.ar    1  LIG1        0.0992
      6 N          -5.3207   -0.9034   -0.0001 N.ar    1  LIG1       -0.2110
      7 H          -1.4054   -0.7607   -0.0009 H       1  LIG1        0.0639
      8 H          -2.5135   -3.1487    0.0004 H       1  LIG1        0.0671
      9 O          -5.2431   -3.1437    0.0002 O.3     1  LIG1       -0.4924
     10 H          -4.6298   -3.8823    0.0002 H       1  LIG1        0.2937
     11 N          -2.6846    1.5410   -0.0003 N.pl3   1  LIG1       -0.2644
     12 H          -1.8048    1.4799   -0.4718 H       1  LIG1        0.1700
     13 H          -3.2703    2.2002   -0.4718 H       0  HOH0        0.2052
     14 C          -4.8196    2.6153   -0.0003 C.ar    1  LIG1        0.0998
     15 C          -5.4065    1.3366   -0.0004 C.ar    1  LIG1        0.0316
     16 C          -6.7994    1.2424   -0.0003 C.ar    1  LIG1       -0.0259
     17 C          -7.5524    2.4178   -0.0003 C.ar    1  LIG1        0.0710
     18 C          -6.8736    3.6502   -0.0004 C.ar    1  LIG1        0.0961
     19 N          -5.5307    3.7594   -0.0003 N.ar    1  LIG1       -0.2425
     20 H          -7.2937    0.2606   -0.0014 H       1  LIG1        0.0644
     21 O          -3.5270    2.7543   -0.0003 O.3     2  HOH2       -0.4105
     22 H          -3.3053    3.6884   -0.0003 H       0  HOH0        0.2052
     23 N          -8.8520    2.3834   -0.0004 N.pl3   1  LIG1       -0.2644
     24 H          -9.2068    3.1908   -0.4718 H       0  HOH0        0.2528
     25 H          -9.1636    1.5584   -0.4719 H       1  LIG1        0.1700
     26 C          -8.9376    4.7719   -0.0001 C.ar    1  LIG1        0.0998
     27 C          -7.5307    4.7719   -0.0003 C.ar    1  LIG1        0.0315
     28 C          -6.8640    5.9985   -0.0001 C.ar    1  LIG1       -0.0259
     29 C          -7.6181    7.1732    0.0002 C.ar    1  LIG1        0.0710
     30 C          -9.0213    7.0704    0.0002 C.ar    1  LIG1        0.0961
     31 N          -9.6808    5.8955    0.0002 N.ar    1  LIG1       -0.2425
     32 H          -5.7655    6.0382   -0.0012 H       1  LIG1        0.0644
     33 O          -9.6033    3.6552   -0.0002 O.3     3  HOH3       -0.2528
     34 H          -8.9900    2.9166   -0.0002 H       4  UNK4        0.0000
     35 N          -7.0447    8.3399    0.0002 N.pl3   1  LIG1       -0.2644
     36 H          -6.1649    8.2789   -0.4712 H       1  LIG1        0.1700
     37 H          -7.6304    8.9992   -0.4712 H       0  HOH0        0.2052
     38 C          -9.1798    9.4141    0.0008 C.ar    1  LIG1        0.0991
     39 C          -9.7667    8.1355    0.0005 C.ar    1  LIG1        0.0314
     40 C         -11.1596    8.0413    0.0008 C.ar    1  LIG1       -0.0282
     41 C         -11.9126    9.2167    0.0012 C.ar    1  LIG1        0.0436
     42 C         -11.2338   10.4491    0.0013 C.ar    1  LIG1        0.0490
     43 N          -9.8909   10.5583    0.0012 N.ar    1  LIG1       -0.2509
     44 H         -11.6539    7.0595   -0.0005 H       1  LIG1        0.0644
     45 H         -11.8909   11.5707    0.0018 H       1  LIG1        0.0848
     46 O          -7.8872    9.5532    0.0006 O.3     5  HOH5       -0.4105
     47 H          -7.6654   10.4873    0.0006 H       0  HOH0        0.2052
     48 N         -13.2121    9.1823    0.0013 N.pl3   1  LIG1       -0.3568
     49 H         -13.5670    9.9896   -0.4700 H       1  LIG1        0.1424
     50 H         -13.5238    8.3573   -0.4701 H       1  LIG1        0.1424
@<TRIPOS>BOND
     1    25    23    1
     2    24    33    1
     3    13    21    1
     4    12    11    1
     5    37    46    1
     6    36    35    1
     7    50    48    1
     8    49    48    1
     9    20    16    1
    10    32    28    1
    11     7     3    1
    12    44    40    1
    13    15    16   ar
    14    15     5    1
    15    15    14   ar
    16    23    17    1
    17    18    17   ar
    18    18    27    1
    19    18    19   ar
    20    16    17   ar
    21    11     4    1
    22     5     6   ar
    23     5     4   ar
    24    27    26   ar
    25    27    28   ar
    26    14    19   ar
    27    21    22    1
    28     6     1   ar
    29     4     3   ar
    30    26    31   ar
    31    28    29   ar
    32     2     1   ar
    33     2     3   ar
    34     2     8    1
    35     1     9    1
    36    31    30   ar
    37    30    29   ar
    38    30    39    1
    39    29    35    1
    40     9    10    1
    41    39    40   ar
    42    39    38   ar
    43    47    46    1
    44    40    41   ar
    45    38    43   ar
    46    41    42   ar
    47    41    48    1
    48    43    42   ar
    49    42    45    1
