@<TRIPOS>MOLECULE
mol_data/noopt/geoms/mol2/6fh6fh6fh6fh.out
 50 53 0 0 0
SMALL
GASTEIGER

@<TRIPOS>ATOM
      1 C          -4.5775   -2.0270    0.0001 C.ar    1  LIG1        0.2129
      2 C          -3.1706   -2.0270    0.0001 C.ar    1  LIG1        0.0016
      3 C          -2.5039   -0.8004    0.0001 C.ar    1  LIG1       -0.0339
      4 C          -3.2580    0.3743   -0.0001 C.ar    1  LIG1        0.0513
      5 C          -4.6612    0.2715   -0.0003 C.ar    1  LIG1        0.1005
      6 N          -5.3207   -0.9034   -0.0001 N.ar    1  LIG1       -0.2110
      7 H          -1.4054   -0.7607   -0.0009 H       1  LIG1        0.0638
      8 H          -2.5135   -3.1487    0.0004 H       1  LIG1        0.0671
      9 O          -5.2431   -3.1437    0.0002 O.3     1  LIG1       -0.4924
     10 H          -4.6298   -3.8823    0.0002 H       1  LIG1        0.2937
     11 N          -2.6846    1.5410   -0.0003 N.pl3   1  LIG1       -0.3563
     12 H          -1.8048    1.4799   -0.4718 H       1  LIG1        0.1424
     13 H          -3.2703    2.2002   -0.4718 H       1  LIG1        0.1424
     14 C          -6.8088    1.2233   -0.0003 C.ar    1  LIG1        0.2224
     15 C          -5.4065    1.3366   -0.0004 C.ar    1  LIG1        0.0654
     16 C          -4.8408    2.6129   -0.0003 C.ar    1  LIG1       -0.0246
     17 C          -5.6871    3.7231   -0.0003 C.ar    1  LIG1        0.0519
     18 C          -7.0774    3.5076   -0.0004 C.ar    1  LIG1        0.1005
     19 N          -7.6401    2.2834   -0.0003 N.ar    1  LIG1       -0.2104
     20 H          -3.7491    2.7410   -0.0014 H       1  LIG1        0.0645
     21 O          -7.3823    0.0566   -0.0003 O.3     1  LIG1       -0.4919
     22 H          -6.7115   -0.6302   -0.0003 H       1  LIG1        0.2937
     23 N          -5.2095    4.9322   -0.0004 N.pl3   1  LIG1       -0.3563
     24 H          -4.3276    4.9422   -0.4718 H       1  LIG1        0.1424
     25 H          -5.8464    5.5421   -0.4718 H       1  LIG1        0.1424
     26 C          -9.2948    4.2833   -0.0001 C.ar    1  LIG1        0.2224
     27 C          -7.9061    4.5092   -0.0003 C.ar    1  LIG1        0.0654
     28 C          -7.4450    5.8270   -0.0001 C.ar    1  LIG1       -0.0246
     29 C          -8.3780    6.8653    0.0002 C.ar    1  LIG1        0.0519
     30 C          -9.7465    6.5385    0.0002 C.ar    1  LIG1        0.1005
     31 N         -10.2087    5.2730    0.0002 N.ar    1  LIG1       -0.2104
     32 H          -6.3672    6.0425   -0.0012 H       1  LIG1        0.0645
     33 O          -9.7724    3.0742   -0.0002 O.3     1  LIG1       -0.4919
     34 H          -9.0485    2.4437   -0.0002 H       1  LIG1        0.2937
     35 N          -7.9993    8.1090    0.0002 N.pl3   1  LIG1       -0.3563
     36 H          -7.1212    8.1900   -0.4712 H       1  LIG1        0.1424
     37 H          -8.6833    8.6657   -0.4712 H       1  LIG1        0.1424
     38 C         -12.0191    7.1331    0.0008 C.ar    1  LIG1        0.2219
     39 C         -10.6531    7.4702    0.0005 C.ar    1  LIG1        0.0653
     40 C         -10.2997    8.8208    0.0008 C.ar    1  LIG1       -0.0252
     41 C         -11.3132    9.7806    0.0012 C.ar    1  LIG1        0.0438
     42 C         -12.6510    9.3446    0.0013 C.ar    1  LIG1        0.0520
     43 N         -13.0098    8.0460    0.0012 N.ar    1  LIG1       -0.2191
     44 H          -9.2427    9.1225   -0.0004 H       1  LIG1        0.0645
     45 H         -13.6297   10.2002    0.0018 H       1  LIG1        0.0849
     46 O         -12.3978    5.8895    0.0006 O.3     1  LIG1       -0.4919
     47 H         -11.6254    5.3193    0.0006 H       1  LIG1        0.2937
     48 N         -11.0360   11.0507    0.0014 N.pl3   1  LIG1       -0.3568
     49 H         -10.1672   11.2023   -0.4700 H       1  LIG1        0.1424
     50 H         -11.7626   11.5505   -0.4700 H       1  LIG1        0.1424
@<TRIPOS>BOND
     1    25    23    1
     2    24    23    1
     3    13    11    1
     4    12    11    1
     5    37    35    1
     6    36    35    1
     7    50    48    1
     8    49    48    1
     9    20    16    1
    10    32    28    1
    11     7     3    1
    12    44    40    1
    13    15     5    1
    14    15    14   ar
    15    15    16   ar
    16    18    19   ar
    17    18    27    1
    18    18    17   ar
    19    23    17    1
    20    11     4    1
    21     5     6   ar
    22     5     4   ar
    23    14    21    1
    24    14    19   ar
    25    16    17   ar
    26    21    22    1
    27    27    26   ar
    28    27    28   ar
    29    34    33    1
    30    33    26    1
    31     6     1   ar
    32     4     3   ar
    33    26    31   ar
    34    28    29   ar
    35     2     1   ar
    36     2     3   ar
    37     2     8    1
    38     1     9    1
    39    31    30   ar
    40    30    29   ar
    41    30    39    1
    42    29    35    1
    43     9    10    1
    44    39    38   ar
    45    39    40   ar
    46    47    46    1
    47    46    38    1
    48    38    43   ar
    49    40    41   ar
    50    43    42   ar
    51    41    42   ar
    52    41    48    1
    53    42    45    1
