@<TRIPOS>MOLECULE
mol_data/noopt/geoms/mol2/6fh6fh-6fh-6fh.out
 50 50 0 0 0
SMALL
GASTEIGER

@<TRIPOS>ATOM
      1 C          -4.5775   -2.0270    0.0001 C.ar    1  LIG1        0.2129
      2 C          -3.1706   -2.0270    0.0001 C.ar    1  LIG1        0.0016
      3 C          -2.5039   -0.8004    0.0001 C.ar    1  LIG1       -0.0323
      4 C          -3.2580    0.3743   -0.0001 C.ar    1  LIG1        0.0706
      5 C          -4.6612    0.2715   -0.0003 C.ar    1  LIG1        0.0992
      6 N          -5.3207   -0.9034   -0.0001 N.ar    1  LIG1       -0.2110
      7 H          -1.4054   -0.7607   -0.0009 H       1  LIG1        0.0639
      8 H          -2.5135   -3.1487    0.0004 H       1  LIG1        0.0671
      9 O          -5.2431   -3.1437    0.0002 O.3     1  LIG1       -0.4924
     10 H          -4.6298   -3.8823    0.0002 H       1  LIG1        0.2937
     11 N          -2.6846    1.5410   -0.0003 N.pl3   1  LIG1       -0.2644
     12 H          -1.8048    1.4799   -0.4718 H       1  LIG1        0.1700
     13 H          -3.2703    2.2002   -0.4718 H       0  HOH0        0.2052
     14 C          -4.8196    2.6153   -0.0003 C.ar    1  LIG1        0.0998
     15 C          -5.4065    1.3366   -0.0004 C.ar    1  LIG1        0.0316
     16 C          -6.7994    1.2424   -0.0003 C.ar    1  LIG1       -0.0276
     17 C          -7.5524    2.4178   -0.0003 C.ar    1  LIG1        0.0517
     18 C          -6.8736    3.6502   -0.0004 C.ar    1  LIG1        0.0975
     19 N          -5.5307    3.7594   -0.0003 N.ar    1  LIG1       -0.2425
     20 H          -7.2937    0.2606   -0.0014 H       1  LIG1        0.0644
     21 O          -3.5270    2.7543   -0.0003 O.3     2  HOH2       -0.4105
     22 H          -3.3053    3.6884   -0.0003 H       0  HOH0        0.2052
     23 N          -8.8520    2.3834   -0.0004 N.pl3   1  LIG1       -0.3563
     24 H          -9.2068    3.1908   -0.4718 H       1  LIG1        0.1424
     25 H          -9.1636    1.5584   -0.4719 H       1  LIG1        0.1424
     26 C          -6.8427    5.9991   -0.0000 C.ar    1  LIG1        0.2224
     27 C          -7.5307    4.7719   -0.0003 C.ar    1  LIG1        0.0653
     28 C          -8.9267    4.7902   -0.0001 C.ar    1  LIG1       -0.0229
     29 C          -9.5826    6.0224    0.0002 C.ar    1  LIG1        0.0712
     30 C          -8.8067    7.1961    0.0002 C.ar    1  LIG1        0.0992
     31 N          -7.4594    7.1968    0.0002 N.ar    1  LIG1       -0.2105
     32 H          -9.4985    3.8514   -0.0012 H       1  LIG1        0.0645
     33 O          -5.5432    6.0336   -0.0001 O.3     1  LIG1       -0.4919
     34 H          -5.2469    6.9467   -0.0001 H       1  LIG1        0.2937
     35 N         -10.8807    6.0928    0.0002 N.pl3   1  LIG1       -0.2644
     36 H         -11.1693    6.9261   -0.4712 H       0  HOH0        0.2528
     37 H         -11.2577    5.2955   -0.4713 H       1  LIG1        0.1700
     38 C         -10.7737    8.4804    0.0008 C.ar    1  LIG1        0.0991
     39 C          -9.3714    8.3671    0.0005 C.ar    1  LIG1        0.0315
     40 C          -8.6080    9.5360    0.0008 C.ar    1  LIG1       -0.0282
     41 C          -9.2650   10.7676    0.0012 C.ar    1  LIG1        0.0436
     42 C         -10.6720   10.7782    0.0013 C.ar    1  LIG1        0.0490
     43 N         -11.4240    9.6602    0.0012 N.ar    1  LIG1       -0.2509
     44 H          -7.5099    9.4871   -0.0004 H       1  LIG1        0.0644
     45 H         -11.3291   11.8999    0.0018 H       1  LIG1        0.0848
     46 O         -11.5271    7.4209    0.0006 O.3     3  HOH3       -0.2528
     47 H         -10.9753    6.6354    0.0006 H       4  UNK4        0.0000
     48 N          -8.5995   11.8844    0.0014 N.pl3   1  LIG1       -0.3568
     49 H          -7.7275   11.7527   -0.4700 H       1  LIG1        0.1424
     50 H          -9.1302   12.5887   -0.4700 H       1  LIG1        0.1424
@<TRIPOS>BOND
     1    25    23    1
     2    24    23    1
     3    13    21    1
     4    12    11    1
     5    37    35    1
     6    36    46    1
     7    50    48    1
     8    49    48    1
     9    20    16    1
    10    32    28    1
    11     7     3    1
    12    44    40    1
    13    15    16   ar
    14    15     5    1
    15    15    14   ar
    16    23    17    1
    17    18    17   ar
    18    18    27    1
    19    18    19   ar
    20    16    17   ar
    21    11     4    1
    22     5     6   ar
    23     5     4   ar
    24    27    28   ar
    25    27    26   ar
    26    14    19   ar
    27    21    22    1
    28    34    33    1
    29    33    26    1
    30     6     1   ar
    31     4     3   ar
    32    28    29   ar
    33    26    31   ar
    34     1     2   ar
    35     1     9    1
    36     2     3   ar
    37     2     8    1
    38    29    30   ar
    39    29    35    1
    40    30    31   ar
    41    30    39    1
    42     9    10    1
    43    39    38   ar
    44    39    40   ar
    45    38    43   ar
    46    40    41   ar
    47    43    42   ar
    48    41    42   ar
    49    41    48    1
    50    42    45    1
