@<TRIPOS>MOLECULE
mol_data/noopt/geoms/mol2/6fh6fh-.out
 26 26 0 0 0
SMALL
GASTEIGER

@<TRIPOS>ATOM
      1 C          -4.5775   -2.0270    0.0001 C.ar    1  LIG1        0.2129
      2 C          -3.1706   -2.0270    0.0001 C.ar    1  LIG1        0.0016
      3 C          -2.5039   -0.8004    0.0001 C.ar    1  LIG1       -0.0323
      4 C          -3.2580    0.3743   -0.0001 C.ar    1  LIG1        0.0706
      5 C          -4.6612    0.2715   -0.0003 C.ar    1  LIG1        0.0991
      6 N          -5.3207   -0.9034   -0.0001 N.ar    1  LIG1       -0.2110
      7 H          -1.4054   -0.7607   -0.0009 H       1  LIG1        0.0639
      8 H          -2.5135   -3.1487    0.0004 H       1  LIG1        0.0671
      9 O          -5.2431   -3.1437    0.0002 O.3     1  LIG1       -0.4924
     10 H          -4.6298   -3.8823    0.0002 H       1  LIG1        0.2937
     11 N          -2.6846    1.5410   -0.0003 N.pl3   1  LIG1       -0.2644
     12 H          -1.8048    1.4799   -0.4718 H       1  LIG1        0.1700
     13 H          -3.2703    2.2002   -0.4718 H       0  HOH0        0.2052
     14 C          -4.8196    2.6153   -0.0003 C.ar    1  LIG1        0.0991
     15 C          -5.4065    1.3366   -0.0004 C.ar    1  LIG1        0.0315
     16 C          -6.7994    1.2424   -0.0003 C.ar    1  LIG1       -0.0282
     17 C          -7.5524    2.4178   -0.0003 C.ar    1  LIG1        0.0436
     18 C          -6.8736    3.6502   -0.0004 C.ar    1  LIG1        0.0490
     19 N          -5.5307    3.7594   -0.0003 N.ar    1  LIG1       -0.2509
     20 H          -7.2937    0.2606   -0.0014 H       1  LIG1        0.0644
     21 H          -7.5307    4.7719   -0.0003 H       1  LIG1        0.0848
     22 O          -3.5270    2.7543   -0.0003 O.3     2  HOH2       -0.4105
     23 H          -3.3053    3.6884   -0.0003 H       0  HOH0        0.2052
     24 N          -8.8520    2.3834   -0.0004 N.pl3   1  LIG1       -0.3568
     25 H          -9.2068    3.1908   -0.4718 H       1  LIG1        0.1424
     26 H          -9.1636    1.5584   -0.4719 H       1  LIG1        0.1424
@<TRIPOS>BOND
     1    26    24    1
     2    25    24    1
     3    13    22    1
     4    12    11    1
     5    20    16    1
     6     7     3    1
     7    15    16   ar
     8    15     5    1
     9    15    14   ar
    10    24    17    1
    11    18    17   ar
    12    18    21    1
    13    18    19   ar
    14    16    17   ar
    15     5     6   ar
    16     5     4   ar
    17    11     4    1
    18    14    19   ar
    19    22    23    1
    20     6     1   ar
    21     4     3   ar
    22     1     2   ar
    23     1     9    1
    24     3     2   ar
    25     2     8    1
    26     9    10    1
