@<TRIPOS>MOLECULE
mol_data/noopt/geoms/mol2/6fi12fh(180)4ea(200)13al(110).out
 49 52 0 0 0
SMALL
GASTEIGER

@<TRIPOS>ATOM
      1 C          -4.5775   -2.0270    0.0001 C.ar    1  LIG1        0.2129
      2 C          -3.1706   -2.0270    0.0001 C.ar    1  LIG1        0.0001
      3 C          -2.5039   -0.8004    0.0001 C.ar    1  LIG1       -0.0517
      4 C          -3.2580    0.3743   -0.0001 C.ar    1  LIG1       -0.0211
      5 C          -4.6612    0.2715   -0.0003 C.ar    1  LIG1        0.1164
      6 N          -5.3207   -0.9034   -0.0001 N.ar    1  LIG1       -0.2095
      7 H          -1.4054   -0.7607   -0.0009 H       1  LIG1        0.0622
      8 H          -2.5135   -3.1487    0.0004 H       1  LIG1        0.0671
      9 O          -5.2431   -3.1437    0.0002 O.3     1  LIG1       -0.4924
     10 H          -4.6298   -3.8823    0.0002 H       1  LIG1        0.2937
     11 C          -2.6845    1.5413   -0.0003 C.3     1  LIG1       -0.0376
     12 H          -3.3112    2.2468    0.5041 H       1  LIG1        0.0278
     13 H          -2.5273    1.8613   -1.0092 H       1  LIG1        0.0278
     14 H          -1.7430    1.4761    0.5040 H       1  LIG1        0.0278
     15 C          -5.4065    1.3366   -0.0004 C.ar    1  LIG1        0.1972
     16 C          -6.7630    1.5877   -0.0005 C.ar    1  LIG1        0.1860
     17 C          -6.9184    3.0274   -0.0006 C.ar    1  LIG1        0.1138
     18 C          -5.6459    3.5608   -0.0005 C.ar    1  LIG1        0.1612
     19 O          -4.6967    2.5382   -0.0003 O.2     1  LIG1       -0.4475
     20 O          -7.7325    0.7215   -0.0005 O.3     1  LIG1       -0.5019
     21 H          -7.3685   -0.1668   -0.0005 H       1  LIG1        0.2924
     22 N          -8.0500    3.6673   -0.0006 N.pl3   1  LIG1       -0.3522
     23 H          -7.9382    4.5421   -0.4721 H       1  LIG1        0.1425
     24 H          -8.7420    3.1207   -0.4721 H       1  LIG1        0.1425
     25 C          -5.9330    5.8513   -0.4194 C.ar    1  LIG1        0.0360
     26 C          -5.3431    7.1300   -0.4025 C.ar    1  LIG1       -0.0365
     27 C          -5.1444    4.7601   -0.0006 C.ar    1  LIG1        0.0346
     28 C          -4.0266    7.3164    0.0131 C.ar    1  LIG1       -0.0004
     29 H          -5.9337    7.9857   -0.7219 H       1  LIG1        0.0636
     30 C          -3.8301    4.9457    0.4145 C.ar    1  LIG1       -0.0492
     31 C          -3.2621    6.2239    0.4245 C.ar    1  LIG1       -0.0519
     32 H          -3.2425    4.0884    0.7328 H       1  LIG1        0.0625
     33 C          -7.1656    5.7404   -0.8173 C.1     1  LIG1       -0.0689
     34 C          -8.3046    5.6379   -1.1850 C.1     1  LIG1       -0.1139
     35 H          -9.3191    5.5467   -1.5125 H       1  LIG1        0.1232
     36 H          -2.0330    6.3913    0.8133 H       1  LIG1        0.0624
     37 C          -3.5138    8.5110    0.0161 C.ar    1  LIG1        0.0501
     38 C          -3.5160    9.4693    0.9803 C.ar    1  LIG1        0.0054
     39 C          -2.8072   10.6001    0.4610 C.ar    1  LIG1        0.1379
     40 C          -2.4016   10.2824   -0.7970 C.ar    1  LIG1        0.0444
     41 N          -2.8325    9.0045   -1.0736 N.ar    1  LIG1       -0.3576
     42 H          -2.6759    8.5155   -1.9247 H       1  LIG1        0.1654
     43 H          -1.7292   10.9760   -1.6670 H       1  LIG1        0.0844
     44 H          -4.0632    9.3737    2.1556 H       1  LIG1        0.0675
     45 O          -2.5894   11.7245    1.0761 O.3     1  LIG1       -0.4936
     46 C          -1.1860   11.8809    1.3019 C.3     1  LIG1        0.0789
     47 H          -1.0072   12.8065    1.8081 H       1  LIG1        0.0660
     48 H          -0.8290   11.0709    1.9031 H       1  LIG1        0.0660
     49 H          -0.6718   11.8824    0.3636 H       1  LIG1        0.0660
@<TRIPOS>BOND
     1    42    41    1
     2    43    40    1
     3    35    34    1
     4    34    33    3
     5    41    40   ar
     6    41    37   ar
     7    13    11    1
     8    33    25    1
     9    40    39   ar
    10    29    26    1
    11    24    22    1
    12    23    22    1
    13    25    26   ar
    14    25    27   ar
    15    26    28   ar
    16     7     3    1
    17    22    17    1
    18    17    18   ar
    19    17    16   ar
    20    27    18    1
    21    27    30   ar
    22    21    20    1
    23    20    16    1
    24    18    19   ar
    25    16    15   ar
    26    15     5    1
    27    15    19   ar
    28    11     4    1
    29    11    14    1
    30    11    12    1
    31     5     6   ar
    32     5     4   ar
    33     6     1   ar
    34     4     3   ar
    35     1     2   ar
    36     1     9    1
    37     2     3   ar
    38     2     8    1
    39     9    10    1
    40    28    37    1
    41    28    31   ar
    42    37    38   ar
    43    49    46    1
    44    30    31   ar
    45    30    32    1
    46    31    36    1
    47    39    38   ar
    48    39    45    1
    49    38    44    1
    50    45    46    1
    51    46    47    1
    52    46    48    1
