@<TRIPOS>MOLECULE
mol_data/noopt/geoms/mol2/6fi4da4al-12ei.out
 52 52 0 0 0
SMALL
GASTEIGER

@<TRIPOS>ATOM
      1 C          -4.5775   -2.0270    0.0001 C.ar    1  LIG1        0.2128
      2 C          -3.1706   -2.0270    0.0001 C.ar    1  LIG1        0.0001
      3 C          -2.5039   -0.8004    0.0001 C.ar    1  LIG1       -0.0515
      4 C          -3.2580    0.3743   -0.0001 C.ar    1  LIG1       -0.0208
      5 C          -4.6612    0.2715   -0.0003 C.ar    1  LIG1        0.0786
      6 N          -5.3207   -0.9034   -0.0001 N.ar    1  LIG1       -0.2127
      7 H          -1.4054   -0.7607   -0.0009 H       1  LIG1        0.0623
      8 H          -2.5135   -3.1487    0.0004 H       1  LIG1        0.0671
      9 O          -5.2431   -3.1437    0.0002 O.3     1  LIG1       -0.4924
     10 H          -4.6298   -3.8823    0.0002 H       1  LIG1        0.2937
     11 C          -2.6845    1.5413   -0.0003 C.3     1  LIG1       -0.0216
     12 H          -3.3112    2.2468    0.5041 H       1  LIG1        0.0854
     13 H          -2.5273    1.8613   -1.0092 H       1  LIG1        0.0317
     14 H          -1.7430    1.4761    0.5040 H       1  LIG1        0.0317
     15 C          -4.8076    2.6130    0.0003 C.ar    1  LIG1        0.0045
     16 C          -5.6584    3.7353    0.0017 C.ar    1  LIG1       -0.0447
     17 C          -5.4065    1.3366   -0.0004 C.ar    1  LIG1        0.0094
     18 C          -7.0444    3.5952    0.0018 C.ar    1  LIG1       -0.0171
     19 H          -5.2172    4.7295    0.0025 H       1  LIG1        0.0630
     20 C          -6.7901    1.1962   -0.0003 C.ar    1  LIG1       -0.0514
     21 C          -7.6184    2.3233    0.0007 C.ar    1  LIG1       -0.0534
     22 H          -7.2278    0.2012   -0.0008 H       1  LIG1        0.0624
     23 N          -2.3885    2.9785   -0.0002 N.2     1  LIG1       -0.1571
     24 C          -3.5222    2.8072    0.0000 C.2     1  LIG1        0.0577
     25 H          -8.9112    2.1860    0.0009 H       1  LIG1        0.0624
     26 C          -7.2137    5.9350    0.0257 C.ar    1  LIG1       -0.0532
     27 C          -8.0753    7.0490    0.0276 C.ar    1  LIG1       -0.0497
     28 C          -7.8000    4.6530    0.0030 C.ar    1  LIG1       -0.0142
     29 C          -9.4598    6.8957    0.0071 C.ar    1  LIG1        0.0306
     30 H          -7.6439    8.0474    0.0452 H       1  LIG1        0.0625
     31 C          -9.1820    4.4994   -0.0174 C.ar    1  LIG1       -0.0066
     32 C         -10.0213    5.6184   -0.0156 C.ar    1  LIG1        0.1873
     33 H          -9.6100    3.5003   -0.0347 H       1  LIG1        0.0662
     34 H          -5.9304    6.1416    0.0452 H       1  LIG1        0.0624
     35 O         -11.3125    5.4686   -0.0346 O.3     1  LIG1       -0.2872
     36 C         -11.9419    6.7526   -0.0417 C.3     1  LIG1        0.1118
     37 H         -13.0046    6.6289   -0.0575 H       1  LIG1        0.0647
     38 H         -11.6588    7.2935    0.8372 H       1  LIG1        0.2100
     39 H         -11.6332    7.2964   -0.9099 H       2  UNK2        0.0000
     40 C         -10.2256    7.9461    0.0094 C.2     1  LIG1        0.0104
     41 C         -10.0232    9.3107    0.0112 C.2     1  LIG1        0.0360
     42 C         -11.3347    9.9246    0.0134 C.2     1  LIG1       -0.0345
     43 C         -12.2520    8.8939    0.0128 C.2     1  LIG1       -0.0574
     44 O         -11.5925    7.6643    0.0102 O.3     1  LIG1       -0.3865
     45 H         -13.5492    8.8084    0.0140 H       1  LIG1        0.0621
     46 C          -8.8895    9.9469    0.0110 C.1     1  LIG1       -0.0688
     47 C          -7.8420   10.5347    0.0108 C.1     1  LIG1       -0.1139
     48 H          -6.9089   11.0584    0.0107 H       1  LIG1        0.1232
     49 C         -11.5731   11.2028    0.0154 C.3     1  LIG1       -0.0385
     50 H         -12.4972   11.3925    0.5204 H       1  LIG1        0.0278
     51 H         -11.6389   11.5550   -0.9928 H       1  LIG1        0.0278
     52 H         -10.7795   11.7128    0.5204 H       1  LIG1        0.0278
@<TRIPOS>BOND
     1    13    11    1
     2    51    49    1
     3    37    36    1
     4    36    44    1
     5    33    31    1
     6    35    32    1
     7    31    32   ar
     8    31    28   ar
     9    32    29   ar
    10     7     3    1
    11    22    20    1
    12    17    20   ar
    13    17     5    1
    14    17    15   ar
    15    20    21   ar
    16    11     4    1
    17    11    14    1
    18     5     4   ar
    19     5     6   ar
    20    23    24    2
    21     4     3   ar
    22     6     1   ar
    23    24    15    1
    24    24    12    1
    25     1     2   ar
    26     1     9    1
    27     2     3   ar
    28     2     8    1
    29     9    10    1
    30    15    16   ar
    31    21    25    1
    32    21    18   ar
    33    16    18   ar
    34    16    19    1
    35    18    28    1
    36    28    26   ar
    37    29    40    1
    38    29    27   ar
    39    40    41    2
    40    44    38    1
    41    48    47    1
    42    47    46    3
    43    46    41    1
    44    41    42    1
    45    43    42    2
    46    43    45    1
    47    42    49    1
    48    49    52    1
    49    49    50    1
    50    26    27   ar
    51    26    34    1
    52    27    30    1
