@<TRIPOS>MOLECULE
mol_data/noopt/geoms/mol2/6fi6fi.out
 28 29 0 0 0
SMALL
GASTEIGER

@<TRIPOS>ATOM
      1 C          -4.5775   -2.0270    0.0001 C.ar    1  LIG1        0.2128
      2 C          -3.1706   -2.0270    0.0001 C.ar    1  LIG1        0.0001
      3 C          -2.5039   -0.8004    0.0001 C.ar    1  LIG1       -0.0518
      4 C          -3.2580    0.3743   -0.0001 C.ar    1  LIG1       -0.0241
      5 C          -4.6612    0.2715   -0.0003 C.ar    1  LIG1        0.0828
      6 N          -5.3207   -0.9034   -0.0001 N.ar    1  LIG1       -0.2126
      7 H          -1.4054   -0.7607   -0.0009 H       1  LIG1        0.0622
      8 H          -2.5135   -3.1487    0.0004 H       1  LIG1        0.0671
      9 O          -5.2431   -3.1437    0.0002 O.3     1  LIG1       -0.4924
     10 H          -4.6298   -3.8823    0.0002 H       1  LIG1        0.2937
     11 C          -2.6845    1.5413   -0.0003 C.3     1  LIG1       -0.0377
     12 H          -3.3112    2.2468    0.5041 H       1  LIG1        0.0278
     13 H          -2.5273    1.8613   -1.0092 H       1  LIG1        0.0278
     14 H          -1.7430    1.4761    0.5040 H       1  LIG1        0.0278
     15 C          -6.8088    1.2233   -0.0003 C.ar    1  LIG1        0.2217
     16 C          -5.4065    1.3366   -0.0004 C.ar    1  LIG1        0.0623
     17 C          -4.8408    2.6129   -0.0003 C.ar    1  LIG1       -0.0431
     18 C          -5.6871    3.7231   -0.0003 C.ar    1  LIG1       -0.0315
     19 C          -7.0774    3.5076   -0.0004 C.ar    1  LIG1        0.0343
     20 N          -7.6401    2.2834   -0.0003 N.ar    1  LIG1       -0.2206
     21 H          -3.7491    2.7410   -0.0014 H       1  LIG1        0.0629
     22 H          -7.9061    4.5092   -0.0003 H       1  LIG1        0.0833
     23 O          -7.3823    0.0566   -0.0003 O.3     1  LIG1       -0.4919
     24 H          -6.7115   -0.6302   -0.0003 H       1  LIG1        0.2937
     25 C          -5.2094    4.9325   -0.0004 C.3     1  LIG1       -0.0383
     26 H          -5.8909    5.5852    0.5040 H       1  LIG1        0.0278
     27 H          -5.0784    5.2642   -1.0092 H       1  LIG1        0.0278
     28 H          -4.2658    4.9433    0.5040 H       1  LIG1        0.0278
@<TRIPOS>BOND
     1    27    25    1
     2    13    11    1
     3    21    17    1
     4     7     3    1
     5    16     5    1
     6    16    15   ar
     7    16    17   ar
     8    19    20   ar
     9    19    22    1
    10    19    18   ar
    11    25    18    1
    12    25    28    1
    13    25    26    1
    14     5     6   ar
    15     5     4   ar
    16    11     4    1
    17    11    14    1
    18    11    12    1
    19    15    23    1
    20    15    20   ar
    21    17    18   ar
    22    23    24    1
    23     6     1   ar
    24     4     3   ar
    25     1     2   ar
    26     1     9    1
    27     3     2   ar
    28     2     8    1
    29     9    10    1
