@<TRIPOS>MOLECULE
mol_data/noopt/geoms/mol2/6fi6de(210)13de(250)4aa(110).out
 48 51 0 0 0
SMALL
GASTEIGER

@<TRIPOS>ATOM
      1 C          -4.5775   -2.0270    0.0001 C.ar    1  LIG1        0.2128
      2 C          -3.1706   -2.0270    0.0001 C.ar    1  LIG1        0.0001
      3 C          -2.5039   -0.8004    0.0001 C.ar    1  LIG1       -0.0515
      4 C          -3.2580    0.3743   -0.0001 C.ar    1  LIG1       -0.0208
      5 C          -4.6612    0.2715   -0.0003 C.ar    1  LIG1        0.0801
      6 N          -5.3207   -0.9034   -0.0001 N.ar    1  LIG1       -0.2127
      7 H          -1.4054   -0.7607   -0.0009 H       1  LIG1        0.0623
      8 H          -2.5135   -3.1487    0.0004 H       1  LIG1        0.0671
      9 O          -5.2431   -3.1437    0.0002 O.3     1  LIG1       -0.4924
     10 H          -4.6298   -3.8823    0.0002 H       1  LIG1        0.2937
     11 C          -2.6845    1.5413   -0.0003 C.3     1  LIG1       -0.0216
     12 H          -3.3112    2.2468    0.5041 H       1  LIG1        0.0870
     13 H          -2.5273    1.8613   -1.0092 H       1  LIG1        0.0317
     14 H          -1.7430    1.4761    0.5040 H       1  LIG1        0.0317
     15 C          -4.9526    2.5222    0.6059 C.ar    1  LIG1        0.0936
     16 C          -5.4065    1.3366   -0.0004 C.ar    1  LIG1        0.0289
     17 C          -6.6683    1.3341   -0.5978 C.ar    1  LIG1       -0.0329
     18 C          -7.4275    2.5051   -0.5696 C.ar    1  LIG1        0.0527
     19 C          -6.8872    3.6407    0.0613 C.ar    1  LIG1        0.1045
     20 N          -5.6717    3.6608    0.6424 N.ar    1  LIG1       -0.2423
     21 H          -7.0570    0.4262   -1.0804 H       1  LIG1        0.0638
     22 N          -2.7550    2.6197    1.6769 N.2     1  LIG1       -0.1555
     23 C          -3.7849    2.5740    1.1750 C.2     1  LIG1        0.0759
     24 C          -8.6082    2.5539   -1.1115 C.1     1  LIG1       -0.0675
     25 C          -9.6991    2.5989   -1.6122 C.1     1  LIG1       -0.1138
     26 H         -10.6709    2.6389   -2.0582 H       1  LIG1        0.1232
     27 C          -7.5557    4.7545    0.1134 C.ar    1  LIG1        0.0854
     28 C          -8.3557    5.3469   -0.8123 C.ar    1  LIG1        0.0944
     29 C          -8.8443    6.5646   -0.2386 C.ar    1  LIG1        0.0679
     30 C          -8.3227    6.6619    1.0130 C.ar    1  LIG1        0.0638
     31 N          -7.5328    5.5559    1.2324 N.ar    1  LIG1       -0.3509
     32 H          -7.0268    5.3659    2.0666 H       1  LIG1        0.1660
     33 N          -8.8610    4.4869   -3.0463 N.1     1  LIG1       -0.1908
     34 C          -8.6242    4.8899   -1.9993 C.1     1  LIG1        0.1026
     35 C          -9.6403    7.4214   -0.8065 C.1     1  LIG1       -0.0662
     36 C         -10.3757    8.2130   -1.3313 C.1     1  LIG1       -0.1138
     37 H         -11.0308    8.9181   -1.7987 H       1  LIG1        0.1232
     38 C          -8.8375    7.2204    3.2327 C.ar    1  LIG1       -0.0526
     39 C          -8.9877    8.2536    4.1779 C.ar    1  LIG1       -0.0611
     40 C          -8.4717    7.5813    1.9198 C.ar    1  LIG1       -0.0005
     41 C          -8.7826    9.5877    3.8335 C.ar    1  LIG1       -0.0617
     42 H          -9.2697    7.9972    5.1967 H       1  LIG1        0.0618
     43 C          -8.2668    8.9131    1.5754 C.ar    1  LIG1       -0.0526
     44 C          -8.4205    9.9250    2.5288 C.ar    1  LIG1       -0.0611
     45 H          -7.9853    9.1659    0.5564 H       1  LIG1        0.0624
     46 H          -8.9298   10.5161    4.7315 H       1  LIG1        0.0618
     47 H          -9.0421    5.9945    3.6138 H       1  LIG1        0.0624
     48 H          -8.2278   11.1682    2.2010 H       1  LIG1        0.0618
@<TRIPOS>BOND
     1    33    34    3
     2    26    25    1
     3    34    28    1
     4    37    36    1
     5    25    24    3
     6    36    35    3
     7    24    18    1
     8    21    17    1
     9    13    11    1
    10    28    29   ar
    11    28    27   ar
    12    35    29    1
    13    17    18   ar
    14    17    16   ar
    15    18    19   ar
    16    29    30   ar
    17     7     3    1
    18    16     5    1
    19    16    15   ar
    20    11     4    1
    21    11    14    1
    22     5     6   ar
    23     5     4   ar
    24     6     1   ar
    25     4     3   ar
    26     1     2   ar
    27     1     9    1
    28     3     2   ar
    29     2     8    1
    30     9    10    1
    31    19    27    1
    32    19    20   ar
    33    27    31   ar
    34    12    23    1
    35    45    43    1
    36    15    20   ar
    37    15    23    1
    38    30    31   ar
    39    30    40    1
    40    23    22    2
    41    31    32    1
    42    43    40   ar
    43    43    44   ar
    44    40    38   ar
    45    48    44    1
    46    44    41   ar
    47    38    47    1
    48    38    39   ar
    49    41    39   ar
    50    41    46    1
    51    39    42    1
