@<TRIPOS>MOLECULE
mol_data/noopt/geoms/mol2/6fi6fi-6fi6fi-.out
 54 53 0 0 0
SMALL
GASTEIGER

@<TRIPOS>ATOM
      1 C          -4.5775   -2.0270    0.0001 C.ar    1  LIG1        0.2128
      2 C          -3.1706   -2.0270    0.0001 C.ar    1  LIG1        0.0001
      3 C          -2.5039   -0.8004    0.0001 C.ar    1  LIG1       -0.0515
      4 C          -3.2580    0.3743   -0.0001 C.ar    1  LIG1       -0.0208
      5 C          -4.6612    0.2715   -0.0003 C.ar    1  LIG1        0.0801
      6 N          -5.3207   -0.9034   -0.0001 N.ar    1  LIG1       -0.2127
      7 H          -1.4054   -0.7607   -0.0009 H       1  LIG1        0.0623
      8 H          -2.5135   -3.1487    0.0004 H       1  LIG1        0.0671
      9 O          -5.2431   -3.1437    0.0002 O.3     1  LIG1       -0.4924
     10 H          -4.6298   -3.8823    0.0002 H       1  LIG1        0.2937
     11 C          -2.6845    1.5413   -0.0003 C.3     1  LIG1       -0.0216
     12 H          -3.3112    2.2468    0.5041 H       0  HOH0        0.2052
     13 H          -2.5273    1.8613   -1.0092 H       1  LIG1        0.0317
     14 H          -1.7430    1.4761    0.5040 H       1  LIG1        0.0317
     15 C          -4.8196    2.6153   -0.0003 C.ar    1  LIG1        0.0996
     16 C          -5.4065    1.3366   -0.0004 C.ar    1  LIG1        0.0285
     17 C          -6.7994    1.2424   -0.0003 C.ar    1  LIG1       -0.0452
     18 C          -7.5524    2.4178   -0.0003 C.ar    1  LIG1       -0.0204
     19 C          -6.8736    3.6502   -0.0004 C.ar    1  LIG1        0.0770
     20 N          -5.5307    3.7594   -0.0003 N.ar    1  LIG1       -0.2441
     21 H          -7.2937    0.2606   -0.0014 H       1  LIG1        0.0628
     22 O          -3.5270    2.7543   -0.0003 O.3     2  HOH2       -0.4105
     23 H          -3.3053    3.6884   -0.0003 H       0  HOH0        0.2052
     24 C          -8.8523    2.3834   -0.0004 C.3     1  LIG1       -0.0216
     25 H          -9.1858    1.5006    0.5040 H       1  LIG1        0.0317
     26 H          -9.2088    2.3739   -1.0093 H       1  LIG1        0.0317
     27 H          -9.2320    3.2473    0.5039 H       0  HOH0        0.2528
     28 C          -8.9376    4.7719   -0.0001 C.ar    1  LIG1        0.0996
     29 C          -7.5307    4.7719   -0.0003 C.ar    1  LIG1        0.0284
     30 C          -6.8640    5.9985   -0.0001 C.ar    1  LIG1       -0.0452
     31 C          -7.6181    7.1732    0.0002 C.ar    1  LIG1       -0.0204
     32 C          -9.0213    7.0704    0.0002 C.ar    1  LIG1        0.0770
     33 N          -9.6808    5.8955    0.0002 N.ar    1  LIG1       -0.2441
     34 H          -5.7655    6.0382   -0.0012 H       1  LIG1        0.0628
     35 O          -9.6033    3.6552   -0.0002 O.3     3  HOH3       -0.2528
     36 H          -8.9900    2.9166   -0.0002 H       4  UNK4        0.0000
     37 C          -7.0446    8.3402    0.0002 C.3     1  LIG1       -0.0216
     38 H          -7.6713    9.0456    0.5046 H       0  HOH0        0.2052
     39 H          -6.8873    8.6603   -1.0086 H       1  LIG1        0.0317
     40 H          -6.1032    8.2749    0.5046 H       1  LIG1        0.0317
     41 C          -9.1798    9.4141    0.0008 C.ar    1  LIG1        0.0989
     42 C          -9.7667    8.1355    0.0005 C.ar    1  LIG1        0.0284
     43 C         -11.1596    8.0413    0.0008 C.ar    1  LIG1       -0.0461
     44 C         -11.9126    9.2167    0.0012 C.ar    1  LIG1       -0.0317
     45 C         -11.2338   10.4491    0.0013 C.ar    1  LIG1        0.0313
     46 N          -9.8909   10.5583    0.0012 N.ar    1  LIG1       -0.2525
     47 H         -11.6539    7.0595   -0.0005 H       1  LIG1        0.0628
     48 H         -11.8909   11.5707    0.0018 H       1  LIG1        0.0832
     49 O          -7.8872    9.5532    0.0006 O.3     5  HOH5       -0.4105
     50 H          -7.6654   10.4873    0.0006 H       0  HOH0        0.2052
     51 C         -13.2124    9.1822    0.0013 C.3     1  LIG1       -0.0383
     52 H         -13.5458    8.2995    0.5058 H       1  LIG1        0.0278
     53 H         -13.5691    9.1727   -1.0075 H       1  LIG1        0.0278
     54 H         -13.5920   10.0462    0.5057 H       1  LIG1        0.0278
@<TRIPOS>BOND
     1    26    24    1
     2    13    11    1
     3    39    37    1
     4    53    51    1
     5    21    17    1
     6    34    30    1
     7     7     3    1
     8    47    43    1
     9    16    17   ar
    10    16     5    1
    11    16    15   ar
    12    24    18    1
    13    24    25    1
    14    19    18   ar
    15    19    29    1
    16    19    20   ar
    17    17    18   ar
    18     5     6   ar
    19     5     4   ar
    20    11     4    1
    21    11    14    1
    22    29    28   ar
    23    29    30   ar
    24    15    20   ar
    25    22    23    1
    26    22    12    1
    27    35    27    1
    28     6     1   ar
    29     4     3   ar
    30    28    33   ar
    31    30    31   ar
    32     1     2   ar
    33     1     9    1
    34     2     3   ar
    35     2     8    1
    36    33    32   ar
    37    32    31   ar
    38    32    42    1
    39    31    37    1
    40    37    40    1
    41     9    10    1
    42    42    43   ar
    43    42    41   ar
    44    50    49    1
    45    49    38    1
    46    43    44   ar
    47    41    46   ar
    48    44    45   ar
    49    44    51    1
    50    46    45   ar
    51    45    48    1
    52    51    54    1
    53    51    52    1
