@<TRIPOS>MOLECULE
mol_data/noopt/geoms/mol2/6fi6fi-6fi-6fi-.out
 54 56 0 0 0
SMALL
GASTEIGER

@<TRIPOS>ATOM
      1 C          -4.5775   -2.0270    0.0001 C.ar    1  LIG1        0.2128
      2 C          -3.1706   -2.0270    0.0001 C.ar    1  LIG1        0.0001
      3 C          -2.5039   -0.8004    0.0001 C.ar    1  LIG1       -0.0515
      4 C          -3.2580    0.3743   -0.0001 C.ar    1  LIG1       -0.0208
      5 C          -4.6612    0.2715   -0.0003 C.ar    1  LIG1        0.0801
      6 N          -5.3207   -0.9034   -0.0001 N.ar    1  LIG1       -0.2127
      7 H          -1.4054   -0.7607   -0.0009 H       1  LIG1        0.0623
      8 H          -2.5135   -3.1487    0.0004 H       1  LIG1        0.0671
      9 O          -5.2431   -3.1437    0.0002 O.3     1  LIG1       -0.4924
     10 H          -4.6298   -3.8823    0.0002 H       1  LIG1        0.2937
     11 C          -2.6845    1.5413   -0.0003 C.3     1  LIG1       -0.0216
     12 H          -3.3112    2.2468    0.5041 H       0  HOH0        0.2052
     13 H          -2.5273    1.8613   -1.0092 H       1  LIG1        0.0317
     14 H          -1.7430    1.4761    0.5040 H       1  LIG1        0.0317
     15 C          -4.8196    2.6153   -0.0003 C.ar    1  LIG1        0.0996
     16 C          -5.4065    1.3366   -0.0004 C.ar    1  LIG1        0.0285
     17 C          -6.7994    1.2424   -0.0003 C.ar    1  LIG1       -0.0455
     18 C          -7.5524    2.4178   -0.0003 C.ar    1  LIG1       -0.0236
     19 C          -6.8736    3.6502   -0.0004 C.ar    1  LIG1        0.0797
     20 N          -5.5307    3.7594   -0.0003 N.ar    1  LIG1       -0.2440
     21 H          -7.2937    0.2606   -0.0014 H       1  LIG1        0.0628
     22 O          -3.5270    2.7543   -0.0003 O.3     2  HOH2       -0.4105
     23 H          -3.3053    3.6884   -0.0003 H       0  HOH0        0.2052
     24 C          -8.8523    2.3834   -0.0004 C.3     1  LIG1       -0.0377
     25 H          -9.1858    1.5006    0.5040 H       1  LIG1        0.0278
     26 H          -9.2088    2.3739   -1.0093 H       1  LIG1        0.0278
     27 H          -9.2320    3.2473    0.5039 H       1  LIG1        0.0278
     28 C          -6.8427    5.9991   -0.0000 C.ar    1  LIG1        0.2223
     29 C          -7.5307    4.7719   -0.0003 C.ar    1  LIG1        0.0622
     30 C          -8.9267    4.7902   -0.0001 C.ar    1  LIG1       -0.0425
     31 C          -9.5826    6.0224    0.0002 C.ar    1  LIG1       -0.0234
     32 C          -8.8067    7.1961    0.0002 C.ar    1  LIG1        0.0828
     33 N          -7.4594    7.1968    0.0002 N.ar    1  LIG1       -0.2120
     34 H          -9.4985    3.8514   -0.0012 H       1  LIG1        0.0629
     35 O          -5.5432    6.0336   -0.0001 O.3     1  LIG1       -0.4919
     36 H          -5.2469    6.9467   -0.0001 H       1  LIG1        0.2937
     37 C         -10.8810    6.0928    0.0002 C.3     1  LIG1       -0.0377
     38 H         -11.2845    5.2397    0.5046 H       1  LIG1        0.0278
     39 H         -11.2372    6.1120   -1.0087 H       1  LIG1        0.0278
     40 H         -11.1898    6.9845    0.5045 H       1  LIG1        0.0278
     41 C          -8.5867    9.5349    0.0008 C.ar    1  LIG1        0.2217
     42 C          -9.3714    8.3671    0.0005 C.ar    1  LIG1        0.0623
     43 C         -10.7613    8.4977    0.0008 C.ar    1  LIG1       -0.0431
     44 C         -11.3158    9.7788    0.0012 C.ar    1  LIG1       -0.0315
     45 C         -10.4479   10.8862    0.0013 C.ar    1  LIG1        0.0343
     46 N          -9.1049   10.7784    0.0012 N.ar    1  LIG1       -0.2206
     47 H         -11.4069    7.6081   -0.0005 H       1  LIG1        0.0629
     48 H         -10.9164   12.0988    0.0018 H       1  LIG1        0.0833
     49 O          -7.2886    9.4646    0.0006 O.3     1  LIG1       -0.4919
     50 H          -6.9197   10.3509    0.0006 H       1  LIG1        0.2937
     51 C         -12.6043    9.9535    0.0014 C.3     1  LIG1       -0.0383
     52 H         -13.0751    9.1358    0.5058 H       1  LIG1        0.0278
     53 H         -12.9579   10.0014   -1.0075 H       1  LIG1        0.0278
     54 H         -12.8403   10.8672    0.5057 H       1  LIG1        0.0278
@<TRIPOS>BOND
     1    26    24    1
     2    13    11    1
     3    39    37    1
     4    53    51    1
     5    21    17    1
     6    34    30    1
     7     7     3    1
     8    47    43    1
     9    16    17   ar
    10    16     5    1
    11    16    15   ar
    12    24    18    1
    13    24    27    1
    14    24    25    1
    15    19    18   ar
    16    19    29    1
    17    19    20   ar
    18    17    18   ar
    19     5     6   ar
    20     5     4   ar
    21    11     4    1
    22    11    14    1
    23    29    30   ar
    24    29    28   ar
    25    15    20   ar
    26    22    23    1
    27    22    12    1
    28    36    35    1
    29    35    28    1
    30     6     1   ar
    31     4     3   ar
    32    30    31   ar
    33    28    33   ar
    34     1     2   ar
    35     1     9    1
    36     2     3   ar
    37     2     8    1
    38    31    32   ar
    39    31    37    1
    40    32    33   ar
    41    32    42    1
    42    37    40    1
    43    37    38    1
    44     9    10    1
    45    42    43   ar
    46    42    41   ar
    47    50    49    1
    48    49    41    1
    49    43    44   ar
    50    41    46   ar
    51    44    45   ar
    52    44    51    1
    53    46    45   ar
    54    45    48    1
    55    51    54    1
    56    51    52    1
