@<TRIPOS>MOLECULE
mol_data/noopt/geoms/mol2/6fi6fi6fi.out
 41 43 0 0 0
SMALL
GASTEIGER

@<TRIPOS>ATOM
      1 C          -4.5775   -2.0270    0.0001 C.ar    1  LIG1        0.2128
      2 C          -3.1706   -2.0270    0.0001 C.ar    1  LIG1        0.0001
      3 C          -2.5039   -0.8004    0.0001 C.ar    1  LIG1       -0.0518
      4 C          -3.2580    0.3743   -0.0001 C.ar    1  LIG1       -0.0241
      5 C          -4.6612    0.2715   -0.0003 C.ar    1  LIG1        0.0828
      6 N          -5.3207   -0.9034   -0.0001 N.ar    1  LIG1       -0.2126
      7 H          -1.4054   -0.7607   -0.0009 H       1  LIG1        0.0622
      8 H          -2.5135   -3.1487    0.0004 H       1  LIG1        0.0671
      9 O          -5.2431   -3.1437    0.0002 O.3     1  LIG1       -0.4924
     10 H          -4.6298   -3.8823    0.0002 H       1  LIG1        0.2937
     11 C          -2.6845    1.5413   -0.0003 C.3     1  LIG1       -0.0377
     12 H          -3.3112    2.2468    0.5041 H       1  LIG1        0.0278
     13 H          -2.5273    1.8613   -1.0092 H       1  LIG1        0.0278
     14 H          -1.7430    1.4761    0.5040 H       1  LIG1        0.0278
     15 C          -6.8088    1.2233   -0.0003 C.ar    1  LIG1        0.2223
     16 C          -5.4065    1.3366   -0.0004 C.ar    1  LIG1        0.0623
     17 C          -4.8408    2.6129   -0.0003 C.ar    1  LIG1       -0.0425
     18 C          -5.6871    3.7231   -0.0003 C.ar    1  LIG1       -0.0234
     19 C          -7.0774    3.5076   -0.0004 C.ar    1  LIG1        0.0828
     20 N          -7.6401    2.2834   -0.0003 N.ar    1  LIG1       -0.2120
     21 H          -3.7491    2.7410   -0.0014 H       1  LIG1        0.0629
     22 O          -7.3823    0.0566   -0.0003 O.3     1  LIG1       -0.4919
     23 H          -6.7115   -0.6302   -0.0003 H       1  LIG1        0.2937
     24 C          -5.2094    4.9325   -0.0004 C.3     1  LIG1       -0.0377
     25 H          -5.8909    5.5852    0.5040 H       1  LIG1        0.0278
     26 H          -5.0784    5.2642   -1.0092 H       1  LIG1        0.0278
     27 H          -4.2658    4.9433    0.5040 H       1  LIG1        0.0278
     28 C          -9.2948    4.2833   -0.0001 C.ar    1  LIG1        0.2217
     29 C          -7.9061    4.5092   -0.0003 C.ar    1  LIG1        0.0623
     30 C          -7.4450    5.8270   -0.0001 C.ar    1  LIG1       -0.0431
     31 C          -8.3780    6.8653    0.0002 C.ar    1  LIG1       -0.0315
     32 C          -9.7465    6.5385    0.0002 C.ar    1  LIG1        0.0343
     33 N         -10.2087    5.2730    0.0002 N.ar    1  LIG1       -0.2206
     34 H          -6.3672    6.0425   -0.0012 H       1  LIG1        0.0629
     35 H         -10.6531    7.4701    0.0005 H       1  LIG1        0.0833
     36 O          -9.7724    3.0742   -0.0002 O.3     1  LIG1       -0.4919
     37 H          -9.0485    2.4437   -0.0002 H       1  LIG1        0.2937
     38 C          -7.9993    8.1093    0.0002 C.3     1  LIG1       -0.0383
     39 H          -8.7311    8.7049    0.5046 H       1  LIG1        0.0278
     40 H          -7.8954    8.4505   -1.0087 H       1  LIG1        0.0278
     41 H          -7.0596    8.1960    0.5046 H       1  LIG1        0.0278
@<TRIPOS>BOND
     1    26    24    1
     2    13    11    1
     3    40    38    1
     4    21    17    1
     5    34    30    1
     6     7     3    1
     7    16     5    1
     8    16    15   ar
     9    16    17   ar
    10    19    20   ar
    11    19    29    1
    12    19    18   ar
    13    24    18    1
    14    24    27    1
    15    24    25    1
    16    11     4    1
    17    11    14    1
    18    11    12    1
    19     5     6   ar
    20     5     4   ar
    21    15    22    1
    22    15    20   ar
    23    17    18   ar
    24    22    23    1
    25    29    28   ar
    26    29    30   ar
    27    37    36    1
    28    36    28    1
    29     6     1   ar
    30     4     3   ar
    31    28    33   ar
    32    30    31   ar
    33     1     2   ar
    34     1     9    1
    35     3     2   ar
    36     2     8    1
    37    33    32   ar
    38    32    31   ar
    39    32    35    1
    40    31    38    1
    41    38    41    1
    42    38    39    1
    43     9    10    1
