@<TRIPOS>MOLECULE
mol_data/noopt/geoms/mol2/6fi6fi-.out
 28 28 0 0 0
SMALL
GASTEIGER

@<TRIPOS>ATOM
      1 C          -4.5775   -2.0270    0.0001 C.ar    1  LIG1        0.2128
      2 C          -3.1706   -2.0270    0.0001 C.ar    1  LIG1        0.0001
      3 C          -2.5039   -0.8004    0.0001 C.ar    1  LIG1       -0.0515
      4 C          -3.2580    0.3743   -0.0001 C.ar    1  LIG1       -0.0208
      5 C          -4.6612    0.2715   -0.0003 C.ar    1  LIG1        0.0801
      6 N          -5.3207   -0.9034   -0.0001 N.ar    1  LIG1       -0.2127
      7 H          -1.4054   -0.7607   -0.0009 H       1  LIG1        0.0623
      8 H          -2.5135   -3.1487    0.0004 H       1  LIG1        0.0671
      9 O          -5.2431   -3.1437    0.0002 O.3     1  LIG1       -0.4924
     10 H          -4.6298   -3.8823    0.0002 H       1  LIG1        0.2937
     11 C          -2.6845    1.5413   -0.0003 C.3     1  LIG1       -0.0216
     12 H          -3.3112    2.2468    0.5041 H       0  HOH0        0.2052
     13 H          -2.5273    1.8613   -1.0092 H       1  LIG1        0.0317
     14 H          -1.7430    1.4761    0.5040 H       1  LIG1        0.0317
     15 C          -4.8196    2.6153   -0.0003 C.ar    1  LIG1        0.0989
     16 C          -5.4065    1.3366   -0.0004 C.ar    1  LIG1        0.0285
     17 C          -6.7994    1.2424   -0.0003 C.ar    1  LIG1       -0.0461
     18 C          -7.5524    2.4178   -0.0003 C.ar    1  LIG1       -0.0317
     19 C          -6.8736    3.6502   -0.0004 C.ar    1  LIG1        0.0313
     20 N          -5.5307    3.7594   -0.0003 N.ar    1  LIG1       -0.2525
     21 H          -7.2937    0.2606   -0.0014 H       1  LIG1        0.0628
     22 H          -7.5307    4.7719   -0.0003 H       1  LIG1        0.0832
     23 O          -3.5270    2.7543   -0.0003 O.3     2  HOH2       -0.4105
     24 H          -3.3053    3.6884   -0.0003 H       0  HOH0        0.2052
     25 C          -8.8523    2.3834   -0.0004 C.3     1  LIG1       -0.0383
     26 H          -9.1858    1.5006    0.5040 H       1  LIG1        0.0278
     27 H          -9.2088    2.3739   -1.0093 H       1  LIG1        0.0278
     28 H          -9.2320    3.2473    0.5039 H       1  LIG1        0.0278
@<TRIPOS>BOND
     1    27    25    1
     2    13    11    1
     3    21    17    1
     4     7     3    1
     5    16    17   ar
     6    16     5    1
     7    16    15   ar
     8    25    18    1
     9    25    28    1
    10    25    26    1
    11    19    18   ar
    12    19    22    1
    13    19    20   ar
    14    17    18   ar
    15     5     6   ar
    16     5     4   ar
    17    11     4    1
    18    11    14    1
    19    15    20   ar
    20    23    24    1
    21    23    12    1
    22     6     1   ar
    23     4     3   ar
    24     1     2   ar
    25     1     9    1
    26     3     2   ar
    27     2     8    1
    28     9    10    1
