@<TRIPOS>MOLECULE
mol_data/noopt/geoms/mol2/6fi6al-12ll-4ff-.out
 55 56 0 0 0
SMALL
GASTEIGER

@<TRIPOS>ATOM
      1 C          -4.5775   -2.0270    0.0001 C.ar    1  LIG1        0.2128
      2 C          -3.1706   -2.0270    0.0001 C.ar    1  LIG1        0.0001
      3 C          -2.5039   -0.8004    0.0001 C.ar    1  LIG1       -0.0518
      4 C          -3.2580    0.3743   -0.0001 C.ar    1  LIG1       -0.0242
      5 C          -4.6612    0.2715   -0.0003 C.ar    1  LIG1        0.0792
      6 N          -5.3207   -0.9034   -0.0001 N.ar    1  LIG1       -0.2127
      7 H          -1.4054   -0.7607   -0.0009 H       1  LIG1        0.0622
      8 H          -2.5135   -3.1487    0.0004 H       1  LIG1        0.0671
      9 O          -5.2431   -3.1437    0.0002 O.3     1  LIG1       -0.4924
     10 H          -4.6298   -3.8823    0.0002 H       1  LIG1        0.2937
     11 C          -2.6845    1.5413   -0.0003 C.3     1  LIG1       -0.0377
     12 H          -3.3112    2.2468    0.5041 H       1  LIG1        0.0278
     13 H          -2.5273    1.8613   -1.0092 H       1  LIG1        0.0278
     14 H          -1.7430    1.4761    0.5040 H       1  LIG1        0.0278
     15 C          -6.8087    1.2234   -0.0215 C.ar    1  LIG1        0.0376
     16 C          -5.4065    1.3366   -0.0004 C.ar    1  LIG1        0.0194
     17 C          -4.8409    2.6128    0.0206 C.ar    1  LIG1       -0.0412
     18 C          -5.6872    3.7230    0.0196 C.ar    1  LIG1        0.0140
     19 C          -7.0774    3.5076   -0.0025 C.ar    1  LIG1        0.1177
     20 N          -7.6400    2.2835   -0.0227 N.ar    1  LIG1       -0.2505
     21 H          -3.7493    2.7408    0.0363 H       1  LIG1        0.0631
     22 H          -7.3820    0.0568   -0.0413 H       1  LIG1        0.0836
     23 O          -5.2098    4.9320    0.0384 O.3     1  LIG1       -0.3928
     24 C          -3.7807    4.8808    0.0452 C.3     2  LIG2       -0.0681
     25 H          -3.3882    5.8761    0.0606 H       2  LIG2        0.0227
     26 H          -3.4469    4.3523    0.9137 H       2  LIG2        0.0227
     27 H          -3.4377    4.3756   -0.8334 H       2  LIG2        0.0227
     28 C          -7.9061    4.5092   -0.0043 C.ar    1  LIG1        0.2046
     29 C          -7.7876    5.8836    0.0092 C.ar    1  LIG1        0.2679
     30 C          -9.1342    6.4161   -0.0031 C.ar    1  LIG1        0.2138
     31 C          -9.9865    5.3314   -0.0235 C.ar    1  LIG1        0.1848
     32 O          -9.2530    4.1444   -0.0247 O.2     1  LIG1       -0.4454
     33 O          -6.6951    6.5879    0.0293 O.3     1  LIG1       -0.2799
     34 C          -5.5636    5.7135    0.0365 C.3     1  LIG1        0.0673
     35 H          -4.6646    6.2935    0.0529 H       1  LIG1        0.0580
     36 H          -5.6009    5.0890    0.9047 H       1  LIG1        0.2095
     37 H          -5.5785    5.1035   -0.8424 H       1  LIG1        0.0580
     38 O          -9.4503    7.6771    0.0039 O.3     1  LIG1       -0.4883
     39 C          -8.2588    8.4679    0.0064 C.3     1  LIG1        0.0791
     40 H          -8.5195    9.5056    0.0120 H       1  LIG1        0.0660
     41 H          -7.6816    8.2404    0.8782 H       1  LIG1        0.0660
     42 H          -7.6838    8.2493   -0.8691 H       1  LIG1        0.0660
     43 C         -12.1277    6.2902   -0.0287 C.ar    1  LIG1        0.1278
     44 C         -13.5167    6.0588   -0.0473 C.ar    1  LIG1       -0.0160
     45 C         -11.2759    5.1667   -0.0412 C.ar    1  LIG1        0.0659
     46 C         -14.0368    4.7668   -0.0776 C.ar    1  LIG1       -0.0167
     47 H         -14.1920    6.9114   -0.0379 H       1  LIG1        0.0655
     48 C         -11.7946    3.8767   -0.0715 C.ar    1  LIG1       -0.0059
     49 C         -13.1775    3.6675   -0.0900 C.ar    1  LIG1        0.1178
     50 H         -11.1170    3.0268   -0.0805 H       1  LIG1        0.0662
     51 H         -15.3246    4.5897   -0.0943 H       1  LIG1        0.0655
     52 O         -11.7023    7.5183   -0.0008 O.3     1  LIG1       -0.5061
     53 H         -12.4525    8.1172    0.0061 H       1  LIG1        0.2922
     54 O         -13.6566    2.4593   -0.1182 O.3     1  LIG1       -0.5067
     55 H         -12.9335    1.8279   -0.1251 H       1  LIG1        0.2921
@<TRIPOS>BOND
     1    13    11    1
     2    42    39    1
     3    37    34    1
     4    27    24    1
     5    55    54    1
     6    54    49    1
     7    51    46    1
     8    49    46   ar
     9    49    48   ar
    10    50    48    1
    11    46    44   ar
    12    48    45   ar
    13    44    47    1
    14    44    43   ar
    15    22    15    1
    16    45    43   ar
    17    45    31    1
    18    43    52    1
    19    32    31   ar
    20    32    28   ar
    21    31    30   ar
    22    20    15   ar
    23    20    19   ar
    24    15    16   ar
    25    28    19    1
    26    28    29   ar
    27    30    38    1
    28    30    29   ar
    29    19    18   ar
    30     7     3    1
    31    52    53    1
    32    16     5    1
    33    16    17   ar
    34     5     4   ar
    35     5     6   ar
    36    11     4    1
    37    11    14    1
    38    11    12    1
    39     4     3   ar
    40     6     1   ar
    41     1     2   ar
    42     1     9    1
    43     3     2   ar
    44     2     8    1
    45     9    10    1
    46    38    39    1
    47    39    40    1
    48    39    41    1
    49    29    33    1
    50    18    17   ar
    51    17    21    1
    52    34    23    1
    53    34    35    1
    54    23    36    1
    55    24    25    1
    56    24    26    1
