@<TRIPOS>MOLECULE
mol_data/noopt/geoms/mol2/6fi6fi6fi-6fi-.out
 54 56 0 0 0
SMALL
GASTEIGER

@<TRIPOS>ATOM
      1 C          -4.5775   -2.0270    0.0001 C.ar    1  LIG1        0.2128
      2 C          -3.1706   -2.0270    0.0001 C.ar    1  LIG1        0.0001
      3 C          -2.5039   -0.8004    0.0001 C.ar    1  LIG1       -0.0518
      4 C          -3.2580    0.3743   -0.0001 C.ar    1  LIG1       -0.0241
      5 C          -4.6612    0.2715   -0.0003 C.ar    1  LIG1        0.0828
      6 N          -5.3207   -0.9034   -0.0001 N.ar    1  LIG1       -0.2126
      7 H          -1.4054   -0.7607   -0.0009 H       1  LIG1        0.0622
      8 H          -2.5135   -3.1487    0.0004 H       1  LIG1        0.0671
      9 O          -5.2431   -3.1437    0.0002 O.3     1  LIG1       -0.4924
     10 H          -4.6298   -3.8823    0.0002 H       1  LIG1        0.2937
     11 C          -2.6845    1.5413   -0.0003 C.3     1  LIG1       -0.0377
     12 H          -3.3112    2.2468    0.5041 H       1  LIG1        0.0278
     13 H          -2.5273    1.8613   -1.0092 H       1  LIG1        0.0278
     14 H          -1.7430    1.4761    0.5040 H       1  LIG1        0.0278
     15 C          -6.8088    1.2233   -0.0003 C.ar    1  LIG1        0.2223
     16 C          -5.4065    1.3366   -0.0004 C.ar    1  LIG1        0.0623
     17 C          -4.8408    2.6129   -0.0003 C.ar    1  LIG1       -0.0422
     18 C          -5.6871    3.7231   -0.0003 C.ar    1  LIG1       -0.0201
     19 C          -7.0774    3.5076   -0.0004 C.ar    1  LIG1        0.0801
     20 N          -7.6401    2.2834   -0.0003 N.ar    1  LIG1       -0.2121
     21 H          -3.7491    2.7410   -0.0014 H       1  LIG1        0.0629
     22 O          -7.3823    0.0566   -0.0003 O.3     1  LIG1       -0.4919
     23 H          -6.7115   -0.6302   -0.0003 H       1  LIG1        0.2937
     24 C          -5.2094    4.9325   -0.0004 C.3     1  LIG1       -0.0216
     25 H          -5.8909    5.5852    0.5040 H       0  HOH0        0.2052
     26 H          -5.0784    5.2642   -1.0092 H       1  LIG1        0.0317
     27 H          -4.2658    4.9433    0.5040 H       1  LIG1        0.0317
     28 C          -7.4241    5.8310   -0.0000 C.ar    1  LIG1        0.0996
     29 C          -7.9061    4.5092   -0.0003 C.ar    1  LIG1        0.0285
     30 C          -9.2869    4.3031   -0.0001 C.ar    1  LIG1       -0.0455
     31 C         -10.1321    5.4140    0.0002 C.ar    1  LIG1       -0.0236
     32 C          -9.5548    6.6971    0.0002 C.ar    1  LIG1        0.0797
     33 N          -8.2251    6.9141    0.0002 N.ar    1  LIG1       -0.2440
     34 H          -9.7005    3.2847   -0.0012 H       1  LIG1        0.0628
     35 O          -6.1469    6.0737   -0.0001 O.3     2  HOH2       -0.4105
     36 H          -6.0011    7.0226   -0.0001 H       0  HOH0        0.2052
     37 C         -11.4250    5.2750    0.0002 C.3     1  LIG1       -0.0377
     38 H         -11.6862    4.3682    0.5046 H       1  LIG1        0.0278
     39 H         -11.7797    5.2368   -1.0087 H       1  LIG1        0.0278
     40 H         -11.8730    6.1056    0.5045 H       1  LIG1        0.0278
     41 C          -9.7132    9.0408    0.0008 C.ar    1  LIG1        0.2217
     42 C         -10.3001    7.7622    0.0005 C.ar    1  LIG1        0.0622
     43 C         -11.6930    7.6680    0.0008 C.ar    1  LIG1       -0.0431
     44 C         -12.4461    8.8434    0.0012 C.ar    1  LIG1       -0.0315
     45 C         -11.7673   10.0758    0.0013 C.ar    1  LIG1        0.0343
     46 N         -10.4244   10.1850    0.0012 N.ar    1  LIG1       -0.2206
     47 H         -12.1874    6.6862   -0.0005 H       1  LIG1        0.0629
     48 H         -12.4244   11.1974    0.0018 H       1  LIG1        0.0833
     49 O          -8.4207    9.1799    0.0006 O.3     1  LIG1       -0.4919
     50 H          -8.1989   10.1139    0.0006 H       1  LIG1        0.2937
     51 C         -13.7459    8.8089    0.0013 C.3     1  LIG1       -0.0383
     52 H         -14.0793    7.9262    0.5058 H       1  LIG1        0.0278
     53 H         -14.1026    8.7994   -1.0075 H       1  LIG1        0.0278
     54 H         -14.1255    9.6729    0.5057 H       1  LIG1        0.0278
@<TRIPOS>BOND
     1    26    24    1
     2    13    11    1
     3    39    37    1
     4    53    51    1
     5    21    17    1
     6    34    30    1
     7     7     3    1
     8    47    43    1
     9    16     5    1
    10    16    15   ar
    11    16    17   ar
    12    19    20   ar
    13    19    29    1
    14    19    18   ar
    15    24    18    1
    16    24    27    1
    17    11     4    1
    18    11    14    1
    19    11    12    1
    20     5     6   ar
    21     5     4   ar
    22    15    22    1
    23    15    20   ar
    24    17    18   ar
    25    22    23    1
    26    29    30   ar
    27    29    28   ar
    28    36    35    1
    29    35    25    1
    30     6     1   ar
    31     4     3   ar
    32    30    31   ar
    33    28    33   ar
    34     1     2   ar
    35     1     9    1
    36     2     3   ar
    37     2     8    1
    38    31    37    1
    39    31    32   ar
    40    37    40    1
    41    37    38    1
    42    32    33   ar
    43    32    42    1
    44     9    10    1
    45    42    43   ar
    46    42    41   ar
    47    50    49    1
    48    49    41    1
    49    43    44   ar
    50    41    46   ar
    51    44    45   ar
    52    44    51    1
    53    46    45   ar
    54    45    48    1
    55    51    54    1
    56    51    52    1
