@<TRIPOS>MOLECULE
mol_data/noopt/geoms/mol2/6fi6fi6fi-6fi.out
 54 54 0 0 0
SMALL
GASTEIGER

@<TRIPOS>ATOM
      1 C          -4.5775   -2.0270    0.0001 C.ar    1  LIG1        0.2128
      2 C          -3.1706   -2.0270    0.0001 C.ar    1  LIG1        0.0001
      3 C          -2.5039   -0.8004    0.0001 C.ar    1  LIG1       -0.0518
      4 C          -3.2580    0.3743   -0.0001 C.ar    1  LIG1       -0.0241
      5 C          -4.6612    0.2715   -0.0003 C.ar    1  LIG1        0.0828
      6 N          -5.3207   -0.9034   -0.0001 N.ar    1  LIG1       -0.2126
      7 H          -1.4054   -0.7607   -0.0009 H       1  LIG1        0.0622
      8 H          -2.5135   -3.1487    0.0004 H       1  LIG1        0.0671
      9 O          -5.2431   -3.1437    0.0002 O.3     1  LIG1       -0.4924
     10 H          -4.6298   -3.8823    0.0002 H       1  LIG1        0.2937
     11 C          -2.6845    1.5413   -0.0003 C.3     1  LIG1       -0.0377
     12 H          -3.3112    2.2468    0.5041 H       1  LIG1        0.0278
     13 H          -2.5273    1.8613   -1.0092 H       1  LIG1        0.0278
     14 H          -1.7430    1.4761    0.5040 H       1  LIG1        0.0278
     15 C          -6.8088    1.2233   -0.0003 C.ar    1  LIG1        0.2223
     16 C          -5.4065    1.3366   -0.0004 C.ar    1  LIG1        0.0623
     17 C          -4.8408    2.6129   -0.0003 C.ar    1  LIG1       -0.0422
     18 C          -5.6871    3.7231   -0.0003 C.ar    1  LIG1       -0.0201
     19 C          -7.0774    3.5076   -0.0004 C.ar    1  LIG1        0.0801
     20 N          -7.6401    2.2834   -0.0003 N.ar    1  LIG1       -0.2121
     21 H          -3.7491    2.7410   -0.0014 H       1  LIG1        0.0629
     22 O          -7.3823    0.0566   -0.0003 O.3     1  LIG1       -0.4919
     23 H          -6.7115   -0.6302   -0.0003 H       1  LIG1        0.2937
     24 C          -5.2094    4.9325   -0.0004 C.3     1  LIG1       -0.0216
     25 H          -5.8909    5.5852    0.5040 H       0  HOH0        0.2052
     26 H          -5.0784    5.2642   -1.0092 H       1  LIG1        0.0317
     27 H          -4.2658    4.9433    0.5040 H       1  LIG1        0.0317
     28 C          -7.4241    5.8310   -0.0000 C.ar    1  LIG1        0.0996
     29 C          -7.9061    4.5092   -0.0003 C.ar    1  LIG1        0.0285
     30 C          -9.2869    4.3031   -0.0001 C.ar    1  LIG1       -0.0452
     31 C         -10.1321    5.4140    0.0002 C.ar    1  LIG1       -0.0204
     32 C          -9.5548    6.6971    0.0002 C.ar    1  LIG1        0.0770
     33 N          -8.2251    6.9141    0.0002 N.ar    1  LIG1       -0.2441
     34 H          -9.7005    3.2847   -0.0012 H       1  LIG1        0.0628
     35 O          -6.1469    6.0737   -0.0001 O.3     2  HOH2       -0.4105
     36 H          -6.0011    7.0226   -0.0001 H       0  HOH0        0.2052
     37 C         -11.4250    5.2750    0.0002 C.3     1  LIG1       -0.0216
     38 H         -11.6862    4.3682    0.5046 H       1  LIG1        0.0317
     39 H         -11.7797    5.2368   -1.0087 H       1  LIG1        0.0317
     40 H         -11.8730    6.1056    0.5045 H       0  HOH0        0.2528
     41 C         -11.7025    7.6489    0.0008 C.ar    1  LIG1        0.0989
     42 C         -10.3001    7.7622    0.0005 C.ar    1  LIG1        0.0284
     43 C          -9.7344    9.0385    0.0008 C.ar    1  LIG1       -0.0461
     44 C         -10.5807   10.1487    0.0012 C.ar    1  LIG1       -0.0317
     45 C         -11.9710    9.9332    0.0013 C.ar    1  LIG1        0.0313
     46 N         -12.5338    8.7090    0.0012 N.ar    1  LIG1       -0.2525
     47 H          -8.6427    9.1666   -0.0004 H       1  LIG1        0.0628
     48 H         -12.7997   10.9348    0.0018 H       1  LIG1        0.0832
     49 O         -12.2760    6.4822    0.0006 O.3     3  HOH3       -0.2528
     50 H         -11.6052    5.7954    0.0006 H       4  UNK4        0.0000
     51 C         -10.1030   11.3581    0.0014 C.3     1  LIG1       -0.0383
     52 H         -10.7845   12.0107    0.5058 H       1  LIG1        0.0278
     53 H          -9.9720   11.6899   -1.0074 H       1  LIG1        0.0278
     54 H          -9.1594   11.3688    0.5058 H       1  LIG1        0.0278
@<TRIPOS>BOND
     1    26    24    1
     2    13    11    1
     3    39    37    1
     4    53    51    1
     5    21    17    1
     6    34    30    1
     7     7     3    1
     8    47    43    1
     9    16     5    1
    10    16    15   ar
    11    16    17   ar
    12    19    20   ar
    13    19    29    1
    14    19    18   ar
    15    24    18    1
    16    24    27    1
    17    11     4    1
    18    11    14    1
    19    11    12    1
    20     5     6   ar
    21     5     4   ar
    22    15    22    1
    23    15    20   ar
    24    17    18   ar
    25    22    23    1
    26    29    30   ar
    27    29    28   ar
    28    36    35    1
    29    35    25    1
    30     6     1   ar
    31     4     3   ar
    32    30    31   ar
    33    28    33   ar
    34     1     2   ar
    35     1     9    1
    36     2     3   ar
    37     2     8    1
    38    31    37    1
    39    31    32   ar
    40    37    38    1
    41    32    33   ar
    42    32    42    1
    43     9    10    1
    44    42    41   ar
    45    42    43   ar
    46    49    40    1
    47    41    46   ar
    48    43    44   ar
    49    46    45   ar
    50    44    45   ar
    51    44    51    1
    52    45    48    1
    53    51    54    1
    54    51    52    1
