@<TRIPOS>MOLECULE
mol_data/noopt/geoms/mol2/6fl13di12lh13ld-.out
 54 52 0 0 0
SMALL
GASTEIGER

@<TRIPOS>ATOM
      1 C          -4.5775   -2.0270    0.0001 C.ar    1  LIG1        0.2131
      2 C          -3.1706   -2.0270    0.0001 C.ar    1  LIG1        0.0033
      3 C          -2.5039   -0.8004    0.0001 C.ar    1  LIG1       -0.0127
      4 C          -3.2580    0.3743   -0.0001 C.ar    1  LIG1        0.1477
      5 C          -4.6612    0.2715   -0.0003 C.ar    1  LIG1        0.1336
      6 N          -5.3207   -0.9034   -0.0001 N.ar    1  LIG1       -0.2078
      7 H          -1.4054   -0.7607   -0.0009 H       1  LIG1        0.0656
      8 H          -2.5135   -3.1487    0.0004 H       1  LIG1        0.0672
      9 O          -5.2431   -3.1437    0.0002 O.3     1  LIG1       -0.4924
     10 H          -4.6298   -3.8823    0.0002 H       1  LIG1        0.2937
     11 O          -2.6846    1.5410   -0.0003 O.3     1  LIG1       -0.4929
     12 C          -1.2643    1.3748   -0.0004 C.3     1  LIG1        0.0789
     13 H          -0.7927    2.3353   -0.0008 H       1  LIG1        0.0660
     14 H          -0.9685    0.8326    0.8734 H       1  LIG1        0.0660
     15 H          -0.9687    0.8321   -0.8739 H       1  LIG1        0.0660
     16 C          -5.4065    1.3366   -0.0004 C.ar    1  LIG1        0.0874
     17 C          -5.0646    2.6523   -0.0008 C.ar    1  LIG1        0.0871
     18 C          -6.2797    3.4100    0.0004 C.ar    1  LIG1        0.0320
     19 C          -7.3108    2.5240   -0.0003 C.ar    1  LIG1        0.0955
     20 N          -6.7806    1.2535   -0.0003 N.ar    1  LIG1       -0.3488
     21 H          -7.3066    0.4100   -0.0008 H       1  LIG1        0.1661
     22 N          -2.7897    3.5528   -0.0006 N.1     1  LIG1       -0.1908
     23 C          -3.8559    3.1308   -0.0007 C.1     1  LIG1        0.1020
     24 C          -6.3821    4.7063    0.0014 C.3     2  LIG2       -0.0681
     25 H          -7.2811    4.9926    0.5061 H       1  LIG1        0.0227
     26 H          -6.4104    5.0627   -1.0071 H       1  LIG1        0.0227
     27 H          -5.5392    5.1302    0.5061 H       1  LIG1        0.0227
     28 C          -8.5952    2.7244    0.0002 C.ar    1  LIG1        0.1944
     29 C          -9.4177    3.8318    0.0154 C.ar    1  LIG1        0.1757
     30 C         -10.7788    3.3378    0.0052 C.ar    1  LIG1        0.0791
     31 C         -10.6978    1.9606   -0.0157 C.ar    1  LIG1        0.1672
     32 O          -9.3617    1.5583   -0.0192 O.2     1  LIG1       -0.4473
     33 O          -9.0667    5.0834    0.0351 O.3     1  LIG1       -0.4906
     34 C          -7.6399    5.1790    0.0423 C.3     1  LIG1        0.0790
     35 H          -7.3515    6.2092    0.0584 H       1  LIG1        0.0660
     36 H          -7.2538    4.6869    0.9106 H       1  LIG1        0.0660
     37 H          -7.2467    4.7122   -0.8365 H       1  LIG1        0.0660
     38 N         -11.8515    4.0722    0.0142 N.3     3  LIG3       -0.2731
     39 H         -11.6680    4.9360   -0.4549 H       2  LIG2        0.1366
     40 H         -12.5905    3.5886   -0.4550 H       3  LIG3        0.0309
     41 C         -11.5540    0.9825   -0.0322 C.ar    1  LIG1        0.1314
     42 C         -12.9132    1.0000   -0.0272 C.ar    1  LIG1        0.2243
     43 C         -13.3586   -0.3607   -0.0516 C.ar    1  LIG1        0.1163
     44 C         -12.2519   -1.1500   -0.0723 C.ar    1  LIG1        0.0236
     45 N         -11.1449   -0.3317   -0.0600 N.ar    1  LIG1       -0.3540
     46 H         -10.2002   -0.6407   -0.0703 H       1  LIG1        0.1656
     47 H         -12.1396   -2.4448   -0.0983 H       1  LIG1        0.0821
     48 O         -13.6667    2.0592   -0.0030 O.3     1  LIG1       -0.2842
     49 C         -12.8449    3.2294    0.0059 C.3     4  LIG4       -0.0309
     50 H         -13.4654    4.1009    0.0256 H       5  UNK5        0.0000
     51 H         -12.2178    3.2184    0.8728 H       2  LIG2        0.1366
     52 H         -12.2365    3.2447   -0.8742 H       6  UNK6        0.0000
     53 N         -15.6809   -1.1307   -0.0564 N.1     1  LIG1       -0.1907
     54 C         -14.5925   -0.7699   -0.0542 C.1     1  LIG1        0.1045
@<TRIPOS>BOND
     1    26    24    1
     2    15    12    1
     3    37    34    1
     4    40    49    1
     5    39    38    1
     6    47    44    1
     7    44    45   ar
     8    44    43   ar
     9    46    45    1
    10    45    41   ar
    11    53    54    3
    12    54    43    1
    13    43    42   ar
    14    41    42   ar
    15    41    31    1
    16    42    48    1
    17    32    31   ar
    18    32    28   ar
    19    31    30   ar
    20     7     3    1
    21    17    23    1
    22    17    16   ar
    23    17    18   ar
    24    21    20    1
    25    13    12    1
    26    23    22    3
    27    12    11    1
    28    12    14    1
    29    16     5    1
    30    16    20   ar
    31    11     4    1
    32     5     6   ar
    33     5     4   ar
    34    20    19   ar
    35    19    28    1
    36    19    18   ar
    37     6     1   ar
    38     4     3   ar
    39     1     2   ar
    40     1     9    1
    41     2     3   ar
    42     2     8    1
    43     9    10    1
    44    28    29   ar
    45    24    27    1
    46    24    25    1
    47    30    29   ar
    48    38    51    1
    49    29    33    1
    50    33    34    1
    51    34    35    1
    52    34    36    1
