@<TRIPOS>MOLECULE
mol_data/noopt/geoms/mol2/6fl12ii4el-12il.out
 59 58 0 0 0
SMALL
GASTEIGER

@<TRIPOS>ATOM
      1 C          -4.5775   -2.0270    0.0001 C.ar    1  LIG1        0.2131
      2 C          -3.1706   -2.0270    0.0001 C.ar    1  LIG1        0.0035
      3 C          -2.5039   -0.8004    0.0001 C.ar    1  LIG1       -0.0076
      4 C          -3.2580    0.3743   -0.0001 C.ar    1  LIG1        0.2080
      5 C          -4.6612    0.2715   -0.0003 C.ar    1  LIG1        0.1564
      6 N          -5.3207   -0.9034   -0.0001 N.ar    1  LIG1       -0.2060
      7 H          -1.4054   -0.7607   -0.0009 H       1  LIG1        0.0658
      8 H          -2.5135   -3.1487    0.0004 H       1  LIG1        0.0672
      9 O          -5.2431   -3.1437    0.0002 O.3     1  LIG1       -0.4924
     10 H          -4.6298   -3.8823    0.0002 H       1  LIG1        0.2937
     11 O          -2.6846    1.5410   -0.0003 O.3     1  LIG1       -0.2855
     12 C          -1.2643    1.3748   -0.0004 C.3     2  LIG2       -0.0681
     13 H          -0.7927    2.3353   -0.0008 H       1  LIG1        0.0227
     14 H          -0.9685    0.8326    0.8734 H       1  LIG1        0.0227
     15 H          -0.9687    0.8321   -0.8739 H       1  LIG1        0.0227
     16 C          -5.4065    1.3366   -0.0004 C.ar    1  LIG1        0.1608
     17 C          -5.1776    2.6970   -0.0005 C.ar    1  LIG1        0.0005
     18 C          -6.4770    3.3362   -0.0006 C.ar    1  LIG1       -0.0011
     19 C          -7.4141    2.3236   -0.0007 C.ar    1  LIG1        0.1402
     20 O          -6.7786    1.0814   -0.0006 O.2     1  LIG1       -0.4526
     21 C          -4.0315    3.3112   -0.0004 C.3     1  LIG1       -0.0358
     22 H          -4.1299    4.2497    0.5041 H       1  LIG1        0.0279
     23 H          -3.7171    3.4798   -1.0092 H       1  LIG1        0.0279
     24 H          -3.3045    2.7096    0.5040 H       1  LIG1        0.0279
     25 C          -6.6905    4.6189   -0.0007 C.3     1  LIG1       -0.0358
     26 H          -7.6109    4.8273    0.5037 H       1  LIG1        0.0279
     27 H          -6.7492    4.9707   -1.0095 H       1  LIG1        0.0279
     28 H          -5.8873    5.1142    0.5037 H       1  LIG1        0.0279
     29 C          -9.4710    3.4517    0.0214 C.ar    1  LIG1        0.0361
     30 C         -10.8743    3.3328    0.0219 C.ar    1  LIG1       -0.0342
     31 C          -8.7126    2.2633   -0.0007 C.ar    1  LIG1        0.0365
     32 C         -11.4971    2.0869    0.0008 C.ar    1  LIG1        0.0309
     33 H         -11.4785    4.2371    0.0389 H       1  LIG1        0.0637
     34 C          -9.3339    1.0192   -0.0218 C.ar    1  LIG1       -0.0025
     35 C         -10.7292    0.9219   -0.0213 C.ar    1  LIG1        0.1874
     36 H          -8.7271    0.1175   -0.0385 H       1  LIG1        0.0663
     37 C          -8.9478    4.6415    0.0414 C.1     1  LIG1       -0.0689
     38 C          -8.4644    5.7410    0.0599 C.1     1  LIG1       -0.1139
     39 H          -8.0337    6.7204    0.0764 H       1  LIG1        0.1232
     40 O         -11.3044   -0.2438   -0.0409 O.3     1  LIG1       -0.2872
     41 C         -12.7244   -0.0753   -0.0482 C.3     3  LIG3       -0.0309
     42 H         -13.1974   -1.0349   -0.0645 H       2  LIG2        0.0309
     43 H         -13.0251    0.4557    0.8308 H       0  HOH0        0.2052
     44 H         -13.0134    0.4795   -0.9163 H       0  HOH0        0.2052
     45 C         -12.7950    2.0140    0.0018 C.2     1  LIG1        0.0004
     46 C         -13.8311    2.9247    0.0174 C.2     1  LIG1       -0.0004
     47 C         -15.0587    2.1566    0.0077 C.2     1  LIG1        0.1237
     48 C         -14.6911    0.8269   -0.0133 C.2     1  LIG1       -0.0162
     49 O         -13.3004    0.7133   -0.0174 O.3     4  HOH4       -0.4105
     50 H         -15.3235   -0.3087   -0.0295 H       1  LIG1        0.0655
     51 C         -13.7499    4.2223    0.0371 C.3     1  LIG1       -0.0356
     52 H         -14.6000    4.6252    0.5469 H       1  LIG1        0.0279
     53 H         -13.7267    4.5935   -0.9662 H       1  LIG1        0.0279
     54 H         -12.8561    4.5160    0.5468 H       1  LIG1        0.0279
     55 O         -16.2613    2.6502    0.0172 O.2     1  LIG1       -0.4948
     56 C         -16.1910    4.0785    0.0206 C.3     1  LIG1        0.0788
     57 H         -17.1811    4.4843    0.0282 H       1  LIG1        0.0660
     58 H         -15.6640    4.4076    0.8917 H       1  LIG1        0.0660
     59 H         -15.6755    4.4123   -0.8555 H       1  LIG1        0.0660
@<TRIPOS>BOND
     1    27    25    1
     2    23    21    1
     3    53    51    1
     4    44    49    1
     5    15    12    1
     6    59    56    1
     7    42    41    1
     8    40    35    1
     9    36    34    1
    10    50    48    1
    11    34    35   ar
    12    34    31   ar
    13    35    32   ar
    14    49    43    1
    15    48    47    2
    16     7     3    1
    17    13    12    1
    18    31    19    1
    19    31    29   ar
    20    25    18    1
    21    25    28    1
    22    25    26    1
    23    19    20   ar
    24    19    18   ar
    25    20    16   ar
    26    18    17   ar
    27    17    16   ar
    28    17    21    1
    29    12    14    1
    30    16     5    1
    31    21    24    1
    32    21    22    1
    33    11     4    1
    34     5     6   ar
    35     5     4   ar
    36     6     1   ar
    37     4     3   ar
    38     1     2   ar
    39     1     9    1
    40     2     3   ar
    41     2     8    1
    42     9    10    1
    43    32    45    1
    44    32    30   ar
    45    45    46    2
    46    47    55    1
    47    47    46    1
    48    55    56    1
    49    46    51    1
    50    56    57    1
    51    56    58    1
    52    29    30   ar
    53    29    37    1
    54    30    33    1
    55    51    54    1
    56    51    52    1
    57    37    38    3
    58    38    39    1
