@<TRIPOS>MOLECULE
mol_data/noopt/geoms/mol2/6fl12fi(70)6lh(110)13ia(90).out
 53 56 0 0 0
SMALL
GASTEIGER

@<TRIPOS>ATOM
      1 C          -4.5775   -2.0270    0.0001 C.ar    1  LIG1        0.2131
      2 C          -3.1706   -2.0270    0.0001 C.ar    1  LIG1        0.0033
      3 C          -2.5039   -0.8004    0.0001 C.ar    1  LIG1       -0.0127
      4 C          -3.2580    0.3743   -0.0001 C.ar    1  LIG1        0.1493
      5 C          -4.6612    0.2715   -0.0003 C.ar    1  LIG1        0.1548
      6 N          -5.3207   -0.9034   -0.0001 N.ar    1  LIG1       -0.2061
      7 H          -1.4054   -0.7607   -0.0009 H       1  LIG1        0.0656
      8 H          -2.5135   -3.1487    0.0004 H       1  LIG1        0.0672
      9 O          -5.2431   -3.1437    0.0002 O.3     1  LIG1       -0.4924
     10 H          -4.6298   -3.8823    0.0002 H       1  LIG1        0.2937
     11 O          -2.6846    1.5410   -0.0003 O.3     1  LIG1       -0.4929
     12 C          -1.2643    1.3748   -0.0004 C.3     1  LIG1        0.0789
     13 H          -0.7927    2.3353   -0.0008 H       1  LIG1        0.0660
     14 H          -0.9685    0.8326    0.8734 H       1  LIG1        0.0660
     15 H          -0.9687    0.8321   -0.8739 H       1  LIG1        0.0660
     16 C          -5.4065    1.3366   -0.0004 C.ar    1  LIG1        0.1989
     17 C          -5.6662    2.3552    0.8929 C.ar    1  LIG1        0.1679
     18 C          -6.6130    3.2411    0.2482 C.ar    1  LIG1        0.0377
     19 C          -6.8691    2.7048   -0.9970 C.ar    1  LIG1        0.1474
     20 O          -6.1368    1.5304   -1.1738 O.2     1  LIG1       -0.4489
     21 O          -5.1723    2.5132    2.0851 O.3     1  LIG1       -0.5030
     22 H          -5.3263    3.4141    2.3789 H       1  LIG1        0.2923
     23 C          -7.1096    4.3257    0.7656 C.3     1  LIG1       -0.0326
     24 H          -7.9566    4.0771    1.3703 H       1  LIG1        0.0280
     25 H          -7.4129    4.9883   -0.0180 H       1  LIG1        0.0280
     26 H          -6.3678    4.8044    1.3702 H       1  LIG1        0.0280
     27 C          -7.0378    3.2331   -3.2797 C.ar    1  LIG1        0.2261
     28 C          -7.6129    3.0326   -2.0115 C.ar    1  LIG1        0.0808
     29 C          -8.9927    3.1935   -1.8723 C.ar    1  LIG1       -0.0231
     30 C          -9.7448    3.5461   -2.9942 C.ar    1  LIG1        0.0533
     31 C          -9.0783    3.7247   -4.2204 C.ar    1  LIG1        0.1117
     32 N          -7.7481    3.5735   -4.3726 N.ar    1  LIG1       -0.2090
     33 H          -9.4775    3.0462   -0.8968 H       1  LIG1        0.0645
     34 O          -5.7576    3.0949   -3.4594 O.3     1  LIG1       -0.4792
     35 C          -5.4323    1.7040   -3.5254 C.3     1  LIG1        0.0804
     36 H          -4.3787    1.5907   -3.6734 H       1  LIG1        0.0660
     37 H          -5.7172    1.2272   -2.6108 H       1  LIG1        0.0660
     38 H          -5.9576    1.2531   -4.3413 H       1  LIG1        0.0660
     39 N         -11.0323    3.7079   -2.9165 N.pl3   1  LIG1       -0.3563
     40 H         -11.2886    4.5630   -3.3671 H       1  LIG1        0.1424
     41 H         -11.4922    2.9428   -3.3672 H       1  LIG1        0.1424
     42 C          -9.7350    4.0531   -5.2931 C.ar    1  LIG1        0.0698
     43 C         -10.9438    4.6582   -5.4367 C.ar    1  LIG1       -0.0237
     44 C         -11.1958    4.7826   -6.8408 C.ar    1  LIG1       -0.0408
     45 C         -10.1290    4.2497   -7.4936 C.ar    1  LIG1        0.0025
     46 N          -9.2326    3.8015   -6.5499 N.ar    1  LIG1       -0.3592
     47 H          -8.3606    3.3659   -6.7449 H       1  LIG1        0.1654
     48 H          -9.8924    4.1305   -8.7663 H       1  LIG1        0.0807
     49 C         -11.7253    5.0491   -4.4738 C.3     1  LIG1       -0.0377
     50 H         -11.9965    4.2079   -3.8706 H       1  LIG1        0.0278
     51 H         -12.6079    5.4905   -4.8876 H       1  LIG1        0.0278
     52 H         -11.2148    5.7706   -3.8707 H       1  LIG1        0.0278
     53 H         -12.2488    5.3080   -7.3932 H       1  LIG1        0.0635
@<TRIPOS>BOND
     1    48    45    1
     2    45    44   ar
     3    45    46   ar
     4    53    44    1
     5    44    43   ar
     6    47    46    1
     7    46    42   ar
     8    43    42   ar
     9    43    49    1
    10    42    31    1
    11    51    49    1
    12    49    52    1
    13    49    50    1
    14    32    31   ar
    15    32    27   ar
    16    38    35    1
    17    31    30   ar
    18    36    35    1
    19    35    34    1
    20    35    37    1
    21    34    27    1
    22    41    39    1
    23    40    39    1
    24    27    28   ar
    25    30    39    1
    26    30    29   ar
    27    28    29   ar
    28    28    19    1
    29    29    33    1
    30    20    19   ar
    31    20    16   ar
    32    19    18   ar
    33    15    12    1
    34    25    23    1
    35     7     3    1
    36    13    12    1
    37    12    11    1
    38    12    14    1
    39    16     5    1
    40    16    17   ar
    41    11     4    1
    42     5     6   ar
    43     5     4   ar
    44     6     1   ar
    45     4     3   ar
    46     3     2   ar
    47     2     1   ar
    48     2     8    1
    49     1     9    1
    50     9    10    1
    51    18    23    1
    52    18    17   ar
    53    23    26    1
    54    23    24    1
    55    17    21    1
    56    21    22    1
