@<TRIPOS>MOLECULE
mol_data/noopt/geoms/mol2/6fl4hl12ha12dh.out
 51 50 0 0 0
SMALL
GASTEIGER

@<TRIPOS>ATOM
      1 C          -4.5775   -2.0270    0.0001 C.ar    1  LIG1        0.2130
      2 C          -3.1706   -2.0270    0.0001 C.ar    1  LIG1        0.0033
      3 C          -2.5039   -0.8004    0.0001 C.ar    1  LIG1       -0.0130
      4 C          -3.2580    0.3743   -0.0001 C.ar    1  LIG1        0.1430
      5 C          -4.6612    0.2715   -0.0003 C.ar    1  LIG1        0.1180
      6 N          -5.3207   -0.9034   -0.0001 N.ar    1  LIG1       -0.2093
      7 H          -1.4054   -0.7607   -0.0009 H       1  LIG1        0.0656
      8 H          -2.5135   -3.1487    0.0004 H       1  LIG1        0.0672
      9 O          -5.2431   -3.1437    0.0002 O.3     1  LIG1       -0.4924
     10 H          -4.6298   -3.8823    0.0002 H       1  LIG1        0.2937
     11 O          -2.6846    1.5410   -0.0003 O.3     1  LIG1       -0.5046
     12 C          -1.2643    1.3748   -0.0004 C.3     2  LIG2       -0.0681
     13 H          -0.7927    2.3353   -0.0008 H       1  LIG1        0.0227
     14 H          -0.9685    0.8326    0.8734 H       1  LIG1        0.0227
     15 H          -0.9687    0.8321   -0.8739 H       1  LIG1        0.0227
     16 C          -4.8076    2.6130    0.0003 C.ar    1  LIG1        0.0544
     17 C          -5.6584    3.7353    0.0017 C.ar    1  LIG1       -0.0273
     18 C          -5.4065    1.3366   -0.0004 C.ar    1  LIG1        0.0300
     19 C          -7.0444    3.5952    0.0018 C.ar    1  LIG1        0.0330
     20 H          -5.2172    4.7295    0.0025 H       1  LIG1        0.0644
     21 C          -6.7901    1.1962   -0.0003 C.ar    1  LIG1       -0.0032
     22 C          -7.6184    2.3233    0.0007 C.ar    1  LIG1        0.1874
     23 H          -7.2278    0.2012   -0.0008 H       1  LIG1        0.0663
     24 N          -3.5222    2.8072    0.0000 N.pl3   1  LIG1       -0.2659
     25 H          -3.0708    2.0496   -0.4715 H       1  LIG1        0.2922
     26 H          -3.3147    3.6643   -0.4715 H       1  LIG1        0.1699
     27 O          -8.9112    2.1860    0.0009 O.3     1  LIG1       -0.2872
     28 C          -9.5282    3.4760    0.0009 C.3     3  LIG3       -0.0309
     29 H         -10.5922    3.3625    0.0009 H       2  LIG2        0.0309
     30 H          -9.2271    4.0154    0.8746 H       0  HOH0        0.2052
     31 H          -9.2271    4.0154   -0.8727 H       0  HOH0        0.2052
     32 C          -7.8000    4.6531    0.0030 C.2     1  LIG1        0.0161
     33 C          -7.5843    6.0156    0.0039 C.2     1  LIG1        0.0338
     34 C          -8.8898    6.6422    0.0051 C.2     1  LIG1       -0.0290
     35 C          -9.8171    5.6205    0.0047 C.2     1  LIG1        0.0311
     36 O          -9.1695    4.3846    0.0033 O.3     4  HOH4       -0.4105
     37 N          -6.4445    6.6408    0.0039 N.pl3   1  LIG1       -0.3575
     38 H          -5.7596    6.0852   -0.4676 H       1  LIG1        0.1423
     39 H          -6.5449    7.5169   -0.4676 H       1  LIG1        0.1423
     40 H          -9.1157    7.9224    0.0062 H       1  LIG1        0.0643
     41 C         -11.1150    5.5476    0.0053 C.ar    1  LIG1        0.1547
     42 C         -12.1511    6.4583    0.0206 C.ar    1  LIG1        0.1180
     43 C         -13.3786    5.6903    0.0106 C.ar    1  LIG1        0.0811
     44 C         -13.0111    4.3606   -0.0103 C.ar    1  LIG1        0.1145
     45 O         -11.6204    4.2469   -0.0140 O.2     1  LIG1       -0.4597
     46 H         -13.6436    3.2249   -0.0267 H       1  LIG1        0.1049
     47 N         -11.9982    8.8999    0.0578 N.1     1  LIG1       -0.1907
     48 C         -12.0699    7.7556    0.0404 C.1     1  LIG1        0.1048
     49 N         -14.5813    6.1839    0.0197 N.pl3   1  LIG1       -0.3545
     50 H         -14.5827    7.0670   -0.4493 H       1  LIG1        0.1424
     51 H         -15.2027    5.5564   -0.4494 H       1  LIG1        0.1424
@<TRIPOS>BOND
     1    15    12    1
     2    31    36    1
     3    26    24    1
     4    25    11    1
     5    39    37    1
     6    38    37    1
     7    51    49    1
     8    50    49    1
     9    46    44    1
    10    45    44   ar
    11    45    41   ar
    12    44    43   ar
    13     7     3    1
    14    23    21    1
    15    13    12    1
    16    12    14    1
    17    18    21   ar
    18    18     5    1
    19    18    16   ar
    20    21    22   ar
    21     5     4   ar
    22     5     6   ar
    23    11     4    1
    24     4     3   ar
    25     6     1   ar
    26    24    16    1
    27     1     2   ar
    28     1     9    1
    29     2     3   ar
    30     2     8    1
    31     9    10    1
    32    16    17   ar
    33    22    27    1
    34    22    19   ar
    35    28    29    1
    36    17    19   ar
    37    17    20    1
    38    19    32    1
    39    32    33    2
    40    36    30    1
    41    37    33    1
    42    33    34    1
    43    35    34    2
    44    35    41    1
    45    34    40    1
    46    41    42   ar
    47    43    49    1
    48    43    42   ar
    49    42    48    1
    50    48    47    3
