@<TRIPOS>MOLECULE
mol_data/noopt/geoms/mol2/6fl6fl-.out
 30 31 0 0 0
SMALL
GASTEIGER

@<TRIPOS>ATOM
      1 C          -4.5775   -2.0270    0.0001 C.ar    1  LIG1        0.2130
      2 C          -3.1706   -2.0270    0.0001 C.ar    1  LIG1        0.0033
      3 C          -2.5039   -0.8004    0.0001 C.ar    1  LIG1       -0.0128
      4 C          -3.2580    0.3743   -0.0001 C.ar    1  LIG1        0.1464
      5 C          -4.6612    0.2715   -0.0003 C.ar    1  LIG1        0.1215
      6 N          -5.3207   -0.9034   -0.0001 N.ar    1  LIG1       -0.2092
      7 H          -1.4054   -0.7607   -0.0009 H       1  LIG1        0.0656
      8 H          -2.5135   -3.1487    0.0004 H       1  LIG1        0.0672
      9 O          -5.2431   -3.1437    0.0002 O.3     1  LIG1       -0.4924
     10 H          -4.6298   -3.8823    0.0002 H       1  LIG1        0.2937
     11 O          -2.6846    1.5410   -0.0003 O.3     1  LIG1       -0.4930
     12 C          -1.2643    1.3748   -0.0004 C.3     1  LIG1        0.0789
     13 H          -0.7927    2.3353   -0.0008 H       1  LIG1        0.0660
     14 H          -0.9685    0.8326    0.8734 H       1  LIG1        0.0660
     15 H          -0.9687    0.8321   -0.8739 H       1  LIG1        0.0660
     16 C          -4.8196    2.6153   -0.0003 C.ar    1  LIG1        0.2220
     17 C          -5.4065    1.3366   -0.0004 C.ar    1  LIG1        0.0688
     18 C          -6.7994    1.2424   -0.0003 C.ar    1  LIG1       -0.0040
     19 C          -7.5524    2.4178   -0.0003 C.ar    1  LIG1        0.1390
     20 C          -6.8736    3.6502   -0.0004 C.ar    1  LIG1        0.0730
     21 N          -5.5307    3.7594   -0.0003 N.ar    1  LIG1       -0.2172
     22 H          -7.2937    0.2606   -0.0014 H       1  LIG1        0.0663
     23 H          -7.5307    4.7719   -0.0003 H       1  LIG1        0.0868
     24 O          -3.5270    2.7543   -0.0003 O.3     1  LIG1       -0.4919
     25 H          -3.3053    3.6884   -0.0003 H       1  LIG1        0.2937
     26 O          -8.8520    2.3834   -0.0004 O.3     1  LIG1       -0.4936
     27 C          -9.3648    3.7183   -0.0005 C.3     1  LIG1        0.0789
     28 H         -10.4344    3.6895   -0.0008 H       1  LIG1        0.0660
     29 H          -9.0221    4.2321    0.8733 H       1  LIG1        0.0660
     30 H          -9.0217    4.2321   -0.8740 H       1  LIG1        0.0660
@<TRIPOS>BOND
     1    30    27    1
     2    15    12    1
     3    22    18    1
     4     7     3    1
     5    13    12    1
     6    28    27    1
     7    27    26    1
     8    27    29    1
     9    12    11    1
    10    12    14    1
    11    17    18   ar
    12    17     5    1
    13    17    16   ar
    14    26    19    1
    15    20    19   ar
    16    20    23    1
    17    20    21   ar
    18    18    19   ar
    19    11     4    1
    20     5     6   ar
    21     5     4   ar
    22    16    21   ar
    23    16    24    1
    24    24    25    1
    25     6     1   ar
    26     4     3   ar
    27     1     2   ar
    28     1     9    1
    29     3     2   ar
    30     2     8    1
    31     9    10    1
