@<TRIPOS>MOLECULE
mol_data/noopt/geoms/mol2/6ga.out
 12 12 0 0 0
SMALL
GASTEIGER

@<TRIPOS>ATOM
      1 C          -4.5775   -2.0270    0.0001 C.ar    1  LIG1        0.0939
      2 C          -3.1706   -2.0270    0.0001 C.ar    1  LIG1       -0.0300
      3 C          -2.5039   -0.8004    0.0001 C.ar    1  LIG1       -0.0578
      4 C          -3.2580    0.3743   -0.0001 C.ar    1  LIG1       -0.0435
      5 C          -4.6612    0.2715   -0.0003 C.ar    1  LIG1        0.0288
      6 N          -5.3207   -0.9034   -0.0001 N.ar    1  LIG1       -0.2490
      7 H          -1.4054   -0.7607   -0.0009 H       1  LIG1        0.0619
      8 H          -2.5135   -3.1487    0.0004 H       1  LIG1        0.0644
      9 H          -5.4065    1.3366   -0.0004 H       1  LIG1        0.0830
     10 S          -5.2431   -3.1436    0.0002 S.3     1  LIG1       -0.1234
     11 H          -4.4062   -4.1515    0.0002 H       1  LIG1        0.1086
     12 H          -2.6846    1.5410   -0.0003 H       1  LIG1        0.0633
@<TRIPOS>BOND
     1     7     3    1
     2     9     5    1
     3     5     4   ar
     4     5     6   ar
     5    12     4    1
     6     4     3   ar
     7     6     1   ar
     8     1     2   ar
     9     1    10    1
    10     2     3   ar
    11     2     8    1
    12    10    11    1
