@<TRIPOS>MOLECULE
mol_data/noopt/geoms/mol2/6ga6ga.out
 22 23 0 0 0
SMALL
GASTEIGER

@<TRIPOS>ATOM
      1 C          -4.5775   -2.0270    0.0001 C.ar    1  LIG1        0.0707
      2 C          -3.1706   -2.0270    0.0001 C.ar    1  LIG1       -0.0320
      3 C          -2.5039   -0.8004    0.0001 C.ar    1  LIG1       -0.0574
      4 C          -3.2580    0.3743   -0.0001 C.ar    1  LIG1       -0.0376
      5 C          -4.6612    0.2715   -0.0003 C.ar    1  LIG1        0.0496
      6 N          -5.3207   -0.9034   -0.0001 N.ar    1  LIG1       -0.3495
      7 H          -1.4054   -0.7607   -0.0009 H       1  LIG1        0.0619
      8 H          -2.5135   -3.1487    0.0004 H       1  LIG1        0.0643
      9 S          -5.2431   -3.1436    0.0002 S.3     1  LIG1       -0.1253
     10 H          -4.4062   -4.1515    0.0002 H       1  LIG1        0.1085
     11 H          -2.6846    1.5410   -0.0003 H       1  LIG1        0.0638
     12 C          -6.8088    1.2233   -0.0003 C.2     1  LIG1        0.1058
     13 C          -5.4065    1.3366   -0.0004 C.2     1  LIG1        0.0285
     14 C          -4.8408    2.6129   -0.0003 C.2     1  LIG1       -0.0490
     15 C          -5.6871    3.7231   -0.0003 C.2     1  LIG1       -0.0453
     16 C          -7.0774    3.5076   -0.0004 C.2     1  LIG1        0.0180
     17 N          -7.6401    2.2834   -0.0003 N.am    1  LIG1       -0.2144
     18 H          -3.7491    2.7410   -0.0014 H       1  LIG1        0.0625
     19 H          -7.9061    4.5092   -0.0003 H       1  LIG1        0.0802
     20 S          -7.3823    0.0567   -0.0003 S.2     1  LIG1       -0.0327
     21 H          -6.4670   -0.8805   -0.0003 H       1  LIG1        0.1664
     22 H          -5.2095    4.9322   -0.0004 H       1  LIG1        0.0631
@<TRIPOS>BOND
     1    18    14    1
     2     7     3    1
     3    13     5    2
     4    13    12    1
     5    13    14    1
     6    16    17    2
     7    16    19    1
     8    16    15    1
     9    22    15    1
    10     5     6   ar
    11     5     4   ar
    12    11     4    1
    13    12    20    2
    14    12    17    1
    15    14    15    2
    16    21     6    1
    17     6     1   ar
    18     4     3   ar
    19     1     2   ar
    20     1     9    1
    21     3     2   ar
    22     2     8    1
    23     9    10    1
