@<TRIPOS>MOLECULE
mol_data/noopt/geoms/mol2/6ga6ga-6ga-.out
 32 34 0 0 0
SMALL
GASTEIGER

@<TRIPOS>ATOM
      1 C          -4.5775   -2.0270    0.0001 C.ar    1  LIG1        0.0707
      2 C          -3.1706   -2.0270    0.0001 C.ar    1  LIG1       -0.0320
      3 C          -2.5039   -0.8004    0.0001 C.ar    1  LIG1       -0.0574
      4 C          -3.2580    0.3743   -0.0001 C.ar    1  LIG1       -0.0376
      5 C          -4.6612    0.2715   -0.0003 C.ar    1  LIG1        0.0497
      6 N          -5.3207   -0.9034   -0.0001 N.ar    1  LIG1       -0.3495
      7 H          -1.4054   -0.7607   -0.0009 H       1  LIG1        0.0619
      8 H          -2.5135   -3.1487    0.0004 H       1  LIG1        0.0643
      9 S          -5.2431   -3.1436    0.0002 S.3     1  LIG1       -0.1253
     10 H          -4.4062   -4.1515    0.0002 H       1  LIG1        0.1085
     11 H          -2.6846    1.5410   -0.0003 H       1  LIG1        0.0638
     12 C          -6.8087    1.2234   -0.0215 C.ar    1  LIG1        0.0939
     13 C          -5.4065    1.3366   -0.0004 C.ar    1  LIG1        0.0290
     14 C          -4.8409    2.6128    0.0206 C.ar    1  LIG1       -0.0482
     15 C          -5.6872    3.7230    0.0196 C.ar    1  LIG1       -0.0370
     16 C          -7.0774    3.5076   -0.0025 C.ar    1  LIG1        0.0496
     17 N          -7.6400    2.2835   -0.0227 N.ar    1  LIG1       -0.3482
     18 H          -3.7493    2.7408    0.0363 H       1  LIG1        0.0626
     19 S          -7.3820    0.0569   -0.0413 S.2     1  LIG1       -0.0321
     20 H          -6.4666   -0.8802   -0.0480 H       1  LIG1        0.1664
     21 H          -5.2098    4.9320    0.0384 H       1  LIG1        0.0638
     22 C          -9.2946    4.2834   -0.0262 C.2     1  LIG1        0.1058
     23 C          -7.9061    4.5092   -0.0043 C.2     1  LIG1        0.0285
     24 C          -7.4452    5.8269    0.0158 C.2     1  LIG1       -0.0490
     25 C          -8.3781    6.8652    0.0131 C.2     1  LIG1       -0.0453
     26 C          -9.7464    6.5386   -0.0098 C.2     1  LIG1        0.0180
     27 N         -10.2085    5.2731   -0.0292 N.am    1  LIG1       -0.2144
     28 H          -6.3674    6.0424    0.0322 H       1  LIG1        0.0625
     29 H         -10.6530    7.4702   -0.0132 H       1  LIG1        0.0802
     30 S          -9.7721    3.0745   -0.0453 S.2     1  LIG1       -0.0327
     31 H          -8.7841    2.2142   -0.0517 H       1  LIG1        0.1664
     32 H          -7.9996    8.1088    0.0310 H       1  LIG1        0.0631
@<TRIPOS>BOND
     1    31    17    1
     2    20     6    1
     3    30    22    2
     4    19    12    2
     5    27    22    1
     6    27    26    2
     7    22    23    1
     8    17    12   ar
     9    17    16   ar
    10    12    13   ar
    11    29    26    1
    12    26    25    1
    13    23    16    2
    14    23    24    1
    15    16    15   ar
    16     7     3    1
    17    13     5    2
    18    13    14   ar
    19    11     4    1
    20     5     6   ar
    21     5     4   ar
    22     6     1   ar
    23     4     3   ar
    24     1     2   ar
    25     1     9    1
    26     3     2   ar
    27     2     8    1
    28     9    10    1
    29    25    24    2
    30    25    32    1
    31    24    28    1
    32    15    14   ar
    33    15    21    1
    34    14    18    1
