@<TRIPOS>MOLECULE
mol_data/noopt/geoms/mol2/6ga6ga-6ga-6ga.out
 42 45 0 0 0
SMALL
GASTEIGER

@<TRIPOS>ATOM
      1 C          -4.5775   -2.0270    0.0001 C.ar    1  LIG1        0.0707
      2 C          -3.1706   -2.0270    0.0001 C.ar    1  LIG1       -0.0320
      3 C          -2.5039   -0.8004    0.0001 C.ar    1  LIG1       -0.0574
      4 C          -3.2580    0.3743   -0.0001 C.ar    1  LIG1       -0.0376
      5 C          -4.6612    0.2715   -0.0003 C.ar    1  LIG1        0.0497
      6 N          -5.3207   -0.9034   -0.0001 N.ar    1  LIG1       -0.3495
      7 H          -1.4054   -0.7607   -0.0009 H       1  LIG1        0.0619
      8 H          -2.5135   -3.1487    0.0004 H       1  LIG1        0.0643
      9 S          -5.2431   -3.1436    0.0002 S.3     1  LIG1       -0.1253
     10 H          -4.4062   -4.1515    0.0002 H       1  LIG1        0.1085
     11 H          -2.6846    1.5410   -0.0003 H       1  LIG1        0.0638
     12 C          -6.8087    1.2234   -0.0215 C.ar    1  LIG1        0.0939
     13 C          -5.4065    1.3366   -0.0004 C.ar    1  LIG1        0.0290
     14 C          -4.8409    2.6128    0.0206 C.ar    1  LIG1       -0.0482
     15 C          -5.6872    3.7230    0.0196 C.ar    1  LIG1       -0.0370
     16 C          -7.0774    3.5076   -0.0025 C.ar    1  LIG1        0.0498
     17 N          -7.6400    2.2835   -0.0227 N.ar    1  LIG1       -0.3482
     18 H          -3.7493    2.7408    0.0363 H       1  LIG1        0.0626
     19 S          -7.3820    0.0569   -0.0413 S.2     1  LIG1       -0.0321
     20 H          -6.4666   -0.8802   -0.0480 H       1  LIG1        0.1664
     21 H          -5.2098    4.9320    0.0384 H       1  LIG1        0.0638
     22 C          -9.2946    4.2834   -0.0262 C.ar    1  LIG1        0.0939
     23 C          -7.9061    4.5092   -0.0043 C.ar    1  LIG1        0.0290
     24 C          -7.4452    5.8269    0.0158 C.ar    1  LIG1       -0.0482
     25 C          -8.3781    6.8652    0.0131 C.ar    1  LIG1       -0.0370
     26 C          -9.7464    6.5386   -0.0098 C.ar    1  LIG1        0.0496
     27 N         -10.2085    5.2731   -0.0292 N.ar    1  LIG1       -0.3482
     28 H          -6.3674    6.0424    0.0322 H       1  LIG1        0.0626
     29 S          -9.7721    3.0745   -0.0453 S.2     1  LIG1       -0.0321
     30 H          -8.7841    2.2142   -0.0517 H       1  LIG1        0.1664
     31 H          -7.9996    8.1088    0.0310 H       1  LIG1        0.0638
     32 C         -12.0190    7.1332   -0.0149 C.2     1  LIG1        0.1058
     33 C         -10.6531    7.4702   -0.0132 C.2     1  LIG1        0.0285
     34 C         -10.2996    8.8208   -0.0149 C.2     1  LIG1       -0.0490
     35 C         -11.3131    9.7807   -0.0184 C.2     1  LIG1       -0.0453
     36 C         -12.6508    9.3447   -0.0200 C.2     1  LIG1        0.0180
     37 N         -13.0097    8.0461   -0.0182 N.am    1  LIG1       -0.2144
     38 H          -9.2426    9.1225   -0.0147 H       1  LIG1        0.0625
     39 H         -13.6296   10.2003   -0.0231 H       1  LIG1        0.0802
     40 S         -12.3977    5.8896   -0.0133 S.2     1  LIG1       -0.0327
     41 H         -11.3438    5.1116   -0.0128 H       1  LIG1        0.1664
     42 H         -11.0359   11.0508   -0.0202 H       1  LIG1        0.0631
@<TRIPOS>BOND
     1    30    17    1
     2    20     6    1
     3    29    22    2
     4    19    12    2
     5    27    22   ar
     6    27    41    1
     7    27    26   ar
     8    22    23   ar
     9    39    36    1
    10    17    12   ar
    11    17    16   ar
    12    12    13   ar
    13    42    35    1
    14    36    35    1
    15    36    37    2
    16    35    34    2
    17    37    32    1
    18    34    38    1
    19    34    33    1
    20    32    40    2
    21    32    33    1
    22    33    26    2
    23    26    25   ar
    24    23    16    2
    25    23    24   ar
    26    16    15   ar
    27     7     3    1
    28    13     5    2
    29    13    14   ar
    30    11     4    1
    31     5     4   ar
    32     5     6   ar
    33     4     3   ar
    34     6     1   ar
    35     3     2   ar
    36     2     1   ar
    37     2     8    1
    38     1     9    1
    39     9    10    1
    40    25    24   ar
    41    25    31    1
    42    24    28    1
    43    15    14   ar
    44    15    21    1
    45    14    18    1
