@<TRIPOS>MOLECULE
mol_data/noopt/geoms/mol2/6ga6ga6ga-.out
 32 34 0 0 0
SMALL
GASTEIGER

@<TRIPOS>ATOM
      1 C          -4.5775   -2.0270    0.0001 C.ar    1  LIG1        0.0707
      2 C          -3.1706   -2.0270    0.0001 C.ar    1  LIG1       -0.0320
      3 C          -2.5039   -0.8004    0.0001 C.ar    1  LIG1       -0.0574
      4 C          -3.2580    0.3743   -0.0001 C.ar    1  LIG1       -0.0376
      5 C          -4.6612    0.2715   -0.0003 C.ar    1  LIG1        0.0497
      6 N          -5.3207   -0.9034   -0.0001 N.ar    1  LIG1       -0.3495
      7 H          -1.4054   -0.7607   -0.0009 H       1  LIG1        0.0619
      8 H          -2.5135   -3.1487    0.0004 H       1  LIG1        0.0643
      9 S          -5.2431   -3.1436    0.0002 S.3     1  LIG1       -0.1253
     10 H          -4.4062   -4.1515    0.0002 H       1  LIG1        0.1085
     11 H          -2.6846    1.5410   -0.0003 H       1  LIG1        0.0638
     12 C          -6.8088    1.2233   -0.0003 C.ar    1  LIG1        0.0939
     13 C          -5.4065    1.3366   -0.0004 C.ar    1  LIG1        0.0290
     14 C          -4.8408    2.6129   -0.0003 C.ar    1  LIG1       -0.0482
     15 C          -5.6871    3.7231   -0.0003 C.ar    1  LIG1       -0.0370
     16 C          -7.0774    3.5076   -0.0004 C.ar    1  LIG1        0.0496
     17 N          -7.6401    2.2834   -0.0003 N.ar    1  LIG1       -0.3482
     18 H          -3.7491    2.7410   -0.0014 H       1  LIG1        0.0626
     19 S          -7.3823    0.0567   -0.0003 S.2     1  LIG1       -0.0321
     20 H          -6.4670   -0.8805   -0.0003 H       1  LIG1        0.1664
     21 H          -5.2095    4.9322   -0.0004 H       1  LIG1        0.0638
     22 C          -9.2946    4.2834   -0.0212 C.2     1  LIG1        0.1058
     23 C          -7.9061    4.5092   -0.0003 C.2     1  LIG1        0.0285
     24 C          -7.4452    5.8268    0.0208 C.2     1  LIG1       -0.0490
     25 C          -8.3781    6.8652    0.0200 C.2     1  LIG1       -0.0453
     26 C          -9.7464    6.5385   -0.0020 C.2     1  LIG1        0.0180
     27 N         -10.2086    5.2731   -0.0223 N.am    1  LIG1       -0.2144
     28 H          -6.3674    6.0423    0.0365 H       1  LIG1        0.0625
     29 H         -10.6531    7.4702   -0.0035 H       1  LIG1        0.0802
     30 S          -9.7721    3.0745   -0.0412 S.2     1  LIG1       -0.0327
     31 H          -8.7842    2.2142   -0.0479 H       1  LIG1        0.1664
     32 H          -7.9996    8.1087    0.0389 H       1  LIG1        0.0631
@<TRIPOS>BOND
     1    31    17    1
     2    30    22    2
     3    27    22    1
     4    27    26    2
     5    22    23    1
     6    29    26    1
     7    26    25    1
     8    18    14    1
     9     7     3    1
    10    13     5    2
    11    13    12   ar
    12    13    14   ar
    13    16    17   ar
    14    16    23    2
    15    16    15   ar
    16    21    15    1
    17     5     6   ar
    18     5     4   ar
    19    11     4    1
    20    12    19    2
    21    12    17   ar
    22    14    15   ar
    23    20     6    1
    24    23    24    1
    25     6     1   ar
    26     4     3   ar
    27     1     2   ar
    28     1     9    1
    29     3     2   ar
    30     2     8    1
    31     9    10    1
    32    25    24    2
    33    25    32    1
    34    24    28    1
