@<TRIPOS>MOLECULE
mol_data/noopt/geoms/mol2/6ga6ga-.out
 22 23 0 0 0
SMALL
GASTEIGER

@<TRIPOS>ATOM
      1 C          -4.5775   -2.0270    0.0001 C.ar    1  LIG1        0.0707
      2 C          -3.1706   -2.0270    0.0001 C.ar    1  LIG1       -0.0320
      3 C          -2.5039   -0.8004    0.0001 C.ar    1  LIG1       -0.0574
      4 C          -3.2580    0.3743   -0.0001 C.ar    1  LIG1       -0.0376
      5 C          -4.6612    0.2715   -0.0003 C.ar    1  LIG1        0.0496
      6 N          -5.3207   -0.9034   -0.0001 N.ar    1  LIG1       -0.3495
      7 H          -1.4054   -0.7607   -0.0009 H       1  LIG1        0.0619
      8 H          -2.5135   -3.1487    0.0004 H       1  LIG1        0.0643
      9 S          -5.2431   -3.1436    0.0002 S.3     1  LIG1       -0.1253
     10 H          -4.4062   -4.1515    0.0002 H       1  LIG1        0.1085
     11 H          -2.6846    1.5410   -0.0003 H       1  LIG1        0.0638
     12 C          -6.8087    1.2234   -0.0215 C.2     1  LIG1        0.1058
     13 C          -5.4065    1.3366   -0.0004 C.2     1  LIG1        0.0285
     14 C          -4.8409    2.6128    0.0206 C.2     1  LIG1       -0.0490
     15 C          -5.6872    3.7230    0.0196 C.2     1  LIG1       -0.0453
     16 C          -7.0774    3.5076   -0.0025 C.2     1  LIG1        0.0180
     17 N          -7.6400    2.2835   -0.0227 N.am    1  LIG1       -0.2144
     18 H          -3.7493    2.7408    0.0363 H       1  LIG1        0.0625
     19 H          -7.9061    4.5092   -0.0043 H       1  LIG1        0.0802
     20 S          -7.3820    0.0569   -0.0413 S.2     1  LIG1       -0.0327
     21 H          -6.4666   -0.8802   -0.0480 H       1  LIG1        0.1664
     22 H          -5.2098    4.9320    0.0384 H       1  LIG1        0.0631
@<TRIPOS>BOND
     1    21     6    1
     2    20    12    2
     3    17    12    1
     4    17    16    2
     5    12    13    1
     6    19    16    1
     7    16    15    1
     8     7     3    1
     9    13     5    2
    10    13    14    1
    11     5     4   ar
    12     5     6   ar
    13    11     4    1
    14     4     3   ar
    15     6     1   ar
    16     1     2   ar
    17     1     9    1
    18     3     2   ar
    19     2     8    1
    20     9    10    1
    21    15    14    2
    22    15    22    1
    23    14    18    1
