@<TRIPOS>MOLECULE
mol_data/noopt/geoms/mol2/6ga6ga-6ga-6ga-.out
 42 45 0 0 0
SMALL
GASTEIGER

@<TRIPOS>ATOM
      1 C          -4.5775   -2.0270    0.0001 C.ar    1  LIG1        0.0707
      2 C          -3.1706   -2.0270    0.0001 C.ar    1  LIG1       -0.0320
      3 C          -2.5039   -0.8004    0.0001 C.ar    1  LIG1       -0.0574
      4 C          -3.2580    0.3743   -0.0001 C.ar    1  LIG1       -0.0376
      5 C          -4.6612    0.2715   -0.0003 C.ar    1  LIG1        0.0497
      6 N          -5.3207   -0.9034   -0.0001 N.ar    1  LIG1       -0.3495
      7 H          -1.4054   -0.7607   -0.0009 H       1  LIG1        0.0619
      8 H          -2.5135   -3.1487    0.0004 H       1  LIG1        0.0643
      9 S          -5.2431   -3.1436    0.0002 S.3     1  LIG1       -0.1253
     10 H          -4.4062   -4.1515    0.0002 H       1  LIG1        0.1085
     11 H          -2.6846    1.5410   -0.0003 H       1  LIG1        0.0638
     12 C          -6.8087    1.2234   -0.0215 C.ar    1  LIG1        0.0939
     13 C          -5.4065    1.3366   -0.0004 C.ar    1  LIG1        0.0290
     14 C          -4.8409    2.6128    0.0206 C.ar    1  LIG1       -0.0482
     15 C          -5.6872    3.7230    0.0196 C.ar    1  LIG1       -0.0370
     16 C          -7.0774    3.5076   -0.0025 C.ar    1  LIG1        0.0498
     17 N          -7.6400    2.2835   -0.0227 N.ar    1  LIG1       -0.3482
     18 H          -3.7493    2.7408    0.0363 H       1  LIG1        0.0626
     19 S          -7.3820    0.0569   -0.0413 S.2     1  LIG1       -0.0321
     20 H          -6.4666   -0.8802   -0.0480 H       1  LIG1        0.1664
     21 H          -5.2098    4.9320    0.0384 H       1  LIG1        0.0638
     22 C          -9.2946    4.2834   -0.0262 C.ar    1  LIG1        0.0939
     23 C          -7.9061    4.5092   -0.0043 C.ar    1  LIG1        0.0290
     24 C          -7.4452    5.8269    0.0158 C.ar    1  LIG1       -0.0482
     25 C          -8.3781    6.8652    0.0131 C.ar    1  LIG1       -0.0370
     26 C          -9.7464    6.5386   -0.0098 C.ar    1  LIG1        0.0496
     27 N         -10.2085    5.2731   -0.0292 N.ar    1  LIG1       -0.3482
     28 H          -6.3674    6.0424    0.0322 H       1  LIG1        0.0626
     29 S          -9.7721    3.0745   -0.0453 S.2     1  LIG1       -0.0321
     30 H          -8.7841    2.2142   -0.0517 H       1  LIG1        0.1664
     31 H          -7.9996    8.1088    0.0310 H       1  LIG1        0.0638
     32 C         -12.0188    7.1333   -0.0360 C.2     1  LIG1        0.1058
     33 C         -10.6531    7.4702   -0.0132 C.2     1  LIG1        0.0285
     34 C         -10.2998    8.8207    0.0060 C.2     1  LIG1       -0.0490
     35 C         -11.3133    9.7806    0.0015 C.2     1  LIG1       -0.0453
     36 C         -12.6508    9.3447   -0.0222 C.2     1  LIG1        0.0180
     37 N         -13.0095    8.0461   -0.0407 N.am    1  LIG1       -0.2144
     38 H          -9.2429    9.1223    0.0231 H       1  LIG1        0.0625
     39 H         -13.6295   10.2003   -0.0271 H       1  LIG1        0.0802
     40 S         -12.3974    5.8898   -0.0543 S.2     1  LIG1       -0.0327
     41 H         -11.3434    5.1119   -0.0605 H       1  LIG1        0.1664
     42 H         -11.0362   11.0506    0.0185 H       1  LIG1        0.0631
@<TRIPOS>BOND
     1    41    27    1
     2    40    32    2
     3    30    17    1
     4    20     6    1
     5    29    22    2
     6    19    12    2
     7    37    32    1
     8    37    36    2
     9    32    33    1
    10    27    22   ar
    11    27    26   ar
    12    39    36    1
    13    22    23   ar
    14    17    12   ar
    15    17    16   ar
    16    36    35    1
    17    12    13   ar
    18    33    26    2
    19    33    34    1
    20    26    25   ar
    21    23    16    2
    22    23    24   ar
    23    16    15   ar
    24     7     3    1
    25    13     5    2
    26    13    14   ar
    27    11     4    1
    28     5     6   ar
    29     5     4   ar
    30     6     1   ar
    31     4     3   ar
    32     1     2   ar
    33     1     9    1
    34     2     3   ar
    35     2     8    1
    36     9    10    1
    37    35    34    2
    38    35    42    1
    39    34    38    1
    40    25    24   ar
    41    25    31    1
    42    24    28    1
    43    15    14   ar
    44    15    21    1
    45    14    18    1
