@<TRIPOS>MOLECULE
mol_data/noopt/geoms/mol2/6ga6ga6ga-6ga.out
 42 45 0 0 0
SMALL
GASTEIGER

@<TRIPOS>ATOM
      1 C          -4.5775   -2.0270    0.0001 C.ar    1  LIG1        0.0707
      2 C          -3.1706   -2.0270    0.0001 C.ar    1  LIG1       -0.0320
      3 C          -2.5039   -0.8004    0.0001 C.ar    1  LIG1       -0.0574
      4 C          -3.2580    0.3743   -0.0001 C.ar    1  LIG1       -0.0376
      5 C          -4.6612    0.2715   -0.0003 C.ar    1  LIG1        0.0497
      6 N          -5.3207   -0.9034   -0.0001 N.ar    1  LIG1       -0.3495
      7 H          -1.4054   -0.7607   -0.0009 H       1  LIG1        0.0619
      8 H          -2.5135   -3.1487    0.0004 H       1  LIG1        0.0643
      9 S          -5.2431   -3.1436    0.0002 S.3     1  LIG1       -0.1253
     10 H          -4.4062   -4.1515    0.0002 H       1  LIG1        0.1085
     11 H          -2.6846    1.5410   -0.0003 H       1  LIG1        0.0638
     12 C          -6.8088    1.2233   -0.0003 C.ar    1  LIG1        0.0939
     13 C          -5.4065    1.3366   -0.0004 C.ar    1  LIG1        0.0290
     14 C          -4.8408    2.6129   -0.0003 C.ar    1  LIG1       -0.0482
     15 C          -5.6871    3.7231   -0.0003 C.ar    1  LIG1       -0.0370
     16 C          -7.0774    3.5076   -0.0004 C.ar    1  LIG1        0.0498
     17 N          -7.6401    2.2834   -0.0003 N.ar    1  LIG1       -0.3482
     18 H          -3.7491    2.7410   -0.0014 H       1  LIG1        0.0626
     19 S          -7.3823    0.0567   -0.0003 S.2     1  LIG1       -0.0321
     20 H          -6.4670   -0.8805   -0.0003 H       1  LIG1        0.1664
     21 H          -5.2095    4.9322   -0.0004 H       1  LIG1        0.0638
     22 C          -9.2946    4.2834   -0.0212 C.ar    1  LIG1        0.0939
     23 C          -7.9061    4.5092   -0.0003 C.ar    1  LIG1        0.0290
     24 C          -7.4452    5.8268    0.0208 C.ar    1  LIG1       -0.0482
     25 C          -8.3781    6.8652    0.0200 C.ar    1  LIG1       -0.0370
     26 C          -9.7464    6.5385   -0.0020 C.ar    1  LIG1        0.0496
     27 N         -10.2086    5.2731   -0.0223 N.ar    1  LIG1       -0.3482
     28 H          -6.3674    6.0423    0.0365 H       1  LIG1        0.0626
     29 S          -9.7721    3.0745   -0.0412 S.2     1  LIG1       -0.0321
     30 H          -8.7842    2.2142   -0.0479 H       1  LIG1        0.1664
     31 H          -7.9996    8.1087    0.0389 H       1  LIG1        0.0638
     32 C         -12.0191    7.1332   -0.0042 C.2     1  LIG1        0.1058
     33 C         -10.6531    7.4702   -0.0035 C.2     1  LIG1        0.0285
     34 C         -10.2997    8.8208   -0.0042 C.2     1  LIG1       -0.0490
     35 C         -11.3132    9.7806   -0.0057 C.2     1  LIG1       -0.0453
     36 C         -12.6509    9.3447   -0.0065 C.2     1  LIG1        0.0180
     37 N         -13.0098    8.0460   -0.0057 N.am    1  LIG1       -0.2144
     38 H          -9.2427    9.1225   -0.0047 H       1  LIG1        0.0625
     39 H         -13.6297   10.2002   -0.0078 H       1  LIG1        0.0802
     40 S         -12.3977    5.8896   -0.0035 S.2     1  LIG1       -0.0327
     41 H         -11.3438    5.1116   -0.0033 H       1  LIG1        0.1664
     42 H         -11.0360   11.0507   -0.0066 H       1  LIG1        0.0631
@<TRIPOS>BOND
     1    30    17    1
     2    29    22    2
     3    27    22   ar
     4    27    41    1
     5    27    26   ar
     6    22    23   ar
     7    39    36    1
     8    42    35    1
     9    36    35    1
    10    36    37    2
    11    35    34    2
    12    37    32    1
    13    38    34    1
    14    34    33    1
    15    32    33    1
    16    32    40    2
    17    33    26    2
    18    26    25   ar
    19    18    14    1
    20     7     3    1
    21    13     5    2
    22    13    12   ar
    23    13    14   ar
    24    16    17   ar
    25    16    23    2
    26    16    15   ar
    27    21    15    1
    28     5     6   ar
    29     5     4   ar
    30    11     4    1
    31    12    19    2
    32    12    17   ar
    33    14    15   ar
    34    20     6    1
    35    23    24   ar
    36     6     1   ar
    37     4     3   ar
    38     2     1   ar
    39     2     3   ar
    40     2     8    1
    41     1     9    1
    42     9    10    1
    43    25    24   ar
    44    25    31    1
    45    24    28    1
