@<TRIPOS>MOLECULE
mol_data/noopt/geoms/mol2/6ga6ga6ga6ga-.out
 42 45 0 0 0
SMALL
GASTEIGER

@<TRIPOS>ATOM
      1 C          -4.5775   -2.0270    0.0001 C.ar    1  LIG1        0.0707
      2 C          -3.1706   -2.0270    0.0001 C.ar    1  LIG1       -0.0320
      3 C          -2.5039   -0.8004    0.0001 C.ar    1  LIG1       -0.0574
      4 C          -3.2580    0.3743   -0.0001 C.ar    1  LIG1       -0.0376
      5 C          -4.6612    0.2715   -0.0003 C.ar    1  LIG1        0.0497
      6 N          -5.3207   -0.9034   -0.0001 N.ar    1  LIG1       -0.3495
      7 H          -1.4054   -0.7607   -0.0009 H       1  LIG1        0.0619
      8 H          -2.5135   -3.1487    0.0004 H       1  LIG1        0.0643
      9 S          -5.2431   -3.1436    0.0002 S.3     1  LIG1       -0.1253
     10 H          -4.4062   -4.1515    0.0002 H       1  LIG1        0.1085
     11 H          -2.6846    1.5410   -0.0003 H       1  LIG1        0.0638
     12 C          -6.8088    1.2233   -0.0003 C.ar    1  LIG1        0.0939
     13 C          -5.4065    1.3366   -0.0004 C.ar    1  LIG1        0.0290
     14 C          -4.8408    2.6129   -0.0003 C.ar    1  LIG1       -0.0482
     15 C          -5.6871    3.7231   -0.0003 C.ar    1  LIG1       -0.0370
     16 C          -7.0774    3.5076   -0.0004 C.ar    1  LIG1        0.0498
     17 N          -7.6401    2.2834   -0.0003 N.ar    1  LIG1       -0.3482
     18 H          -3.7491    2.7410   -0.0014 H       1  LIG1        0.0626
     19 S          -7.3823    0.0567   -0.0003 S.2     1  LIG1       -0.0321
     20 H          -6.4670   -0.8805   -0.0003 H       1  LIG1        0.1664
     21 H          -5.2095    4.9322   -0.0004 H       1  LIG1        0.0638
     22 C          -9.2948    4.2833   -0.0001 C.ar    1  LIG1        0.0939
     23 C          -7.9061    4.5092   -0.0003 C.ar    1  LIG1        0.0290
     24 C          -7.4450    5.8270   -0.0001 C.ar    1  LIG1       -0.0482
     25 C          -8.3780    6.8653    0.0002 C.ar    1  LIG1       -0.0370
     26 C          -9.7465    6.5385    0.0002 C.ar    1  LIG1        0.0496
     27 N         -10.2087    5.2730    0.0002 N.ar    1  LIG1       -0.3482
     28 H          -6.3672    6.0425   -0.0012 H       1  LIG1        0.0626
     29 S          -9.7724    3.0743   -0.0002 S.2     1  LIG1       -0.0321
     30 H          -8.7845    2.2139   -0.0002 H       1  LIG1        0.1664
     31 H          -7.9994    8.1090    0.0002 H       1  LIG1        0.0638
     32 C         -12.0189    7.1333   -0.0204 C.2     1  LIG1        0.1058
     33 C         -10.6531    7.4702    0.0005 C.2     1  LIG1        0.0285
     34 C         -10.2998    8.8206    0.0216 C.2     1  LIG1       -0.0490
     35 C         -11.3134    9.7805    0.0211 C.2     1  LIG1       -0.0453
     36 C         -12.6509    9.3447   -0.0008 C.2     1  LIG1        0.0180
     37 N         -13.0097    8.0461   -0.0212 N.am    1  LIG1       -0.2144
     38 H          -9.2429    9.1222    0.0373 H       1  LIG1        0.0625
     39 H         -13.6297   10.2002   -0.0022 H       1  LIG1        0.0802
     40 S         -12.3975    5.8898   -0.0404 S.2     1  LIG1       -0.0327
     41 H         -11.3435    5.1119   -0.0472 H       1  LIG1        0.1664
     42 H         -11.0363   11.0505    0.0401 H       1  LIG1        0.0631
@<TRIPOS>BOND
     1    41    27    1
     2    40    32    2
     3    37    32    1
     4    37    36    2
     5    32    33    1
     6    39    36    1
     7    18    14    1
     8    28    24    1
     9     7     3    1
    10    36    35    1
    11    13     5    2
    12    13    12   ar
    13    13    14   ar
    14    16    17   ar
    15    16    23    2
    16    16    15   ar
    17    21    15    1
    18    11     4    1
    19     5     6   ar
    20     5     4   ar
    21    12    19    2
    22    12    17   ar
    23    14    15   ar
    24    20     6    1
    25    17    30    1
    26    23    22   ar
    27    23    24   ar
    28    29    22    2
    29     6     1   ar
    30     4     3   ar
    31    22    27   ar
    32    24    25   ar
    33     1     2   ar
    34     1     9    1
    35     3     2   ar
    36     2     8    1
    37    27    26   ar
    38    26    25   ar
    39    26    33    2
    40    25    31    1
    41     9    10    1
    42    33    34    1
    43    35    34    2
    44    35    42    1
    45    34    38    1
