@<TRIPOS>MOLECULE
mol_data/noopt/geoms/mol2/6gd6gd-6gd-.out
 35 37 0 0 0
SMALL
GASTEIGER

@<TRIPOS>ATOM
      1 C          -4.5775   -2.0270    0.0001 C.ar    1  LIG1        0.0708
      2 C          -3.1706   -2.0270    0.0001 C.ar    1  LIG1       -0.0308
      3 C          -2.5039   -0.8004    0.0001 C.ar    1  LIG1       -0.0399
      4 C          -3.2580    0.3743   -0.0001 C.ar    1  LIG1        0.0758
      5 C          -4.6612    0.2715   -0.0003 C.ar    1  LIG1        0.0673
      6 N          -5.3207   -0.9034   -0.0001 N.ar    1  LIG1       -0.3485
      7 H          -1.4054   -0.7607   -0.0009 H       1  LIG1        0.0632
      8 H          -2.5135   -3.1487    0.0004 H       1  LIG1        0.0644
      9 S          -5.2431   -3.1436    0.0002 S.3     1  LIG1       -0.1253
     10 H          -4.4062   -4.1515    0.0002 H       1  LIG1        0.1085
     11 N          -2.1789    2.5700   -0.0005 N.1     1  LIG1       -0.1908
     12 C          -2.6846    1.5410   -0.0003 C.1     1  LIG1        0.1012
     13 C          -6.8087    1.2234   -0.0215 C.ar    1  LIG1        0.0940
     14 C          -5.4065    1.3366   -0.0004 C.ar    1  LIG1        0.0315
     15 C          -4.8409    2.6128    0.0206 C.ar    1  LIG1       -0.0307
     16 C          -5.6872    3.7230    0.0196 C.ar    1  LIG1        0.0764
     17 C          -7.0774    3.5076   -0.0025 C.ar    1  LIG1        0.0672
     18 N          -7.6400    2.2835   -0.0227 N.ar    1  LIG1       -0.3472
     19 H          -3.7493    2.7408    0.0363 H       1  LIG1        0.0638
     20 S          -7.3820    0.0569   -0.0413 S.2     1  LIG1       -0.0321
     21 H          -6.4666   -0.8802   -0.0480 H       1  LIG1        0.1664
     22 N          -4.7887    5.9983    0.0550 N.1     1  LIG1       -0.1908
     23 C          -5.2098    4.9320    0.0384 C.1     1  LIG1        0.1013
     24 C          -9.2946    4.2834   -0.0262 C.2     1  LIG1        0.1059
     25 C          -7.9061    4.5092   -0.0043 C.2     1  LIG1        0.0310
     26 C          -7.4452    5.8269    0.0158 C.2     1  LIG1       -0.0315
     27 C          -8.3781    6.8652    0.0131 C.2     1  LIG1        0.0681
     28 C          -9.7464    6.5386   -0.0098 C.2     1  LIG1        0.0354
     29 N         -10.2085    5.2731   -0.0292 N.am    1  LIG1       -0.2131
     30 H          -6.3674    6.0424    0.0322 H       1  LIG1        0.0638
     31 H         -10.6530    7.4702   -0.0132 H       1  LIG1        0.0815
     32 S          -9.7721    3.0745   -0.0453 S.2     1  LIG1       -0.0327
     33 H          -8.7841    2.2142   -0.0517 H       1  LIG1        0.1664
     34 N          -7.6658    9.2056    0.0468 N.1     1  LIG1       -0.1908
     35 C          -7.9996    8.1088    0.0310 C.1     1  LIG1        0.1005
@<TRIPOS>BOND
     1    33    18    1
     2    21     6    1
     3    32    24    2
     4    20    13    2
     5    29    24    1
     6    29    28    2
     7    24    25    1
     8    18    13   ar
     9    18    17   ar
    10    13    14   ar
    11    31    28    1
    12    28    27    1
    13    25    17    2
    14    25    26    1
    15    17    16   ar
    16     7     3    1
    17    11    12    3
    18    14     5    2
    19    14    15   ar
    20    12     4    1
    21     5     6   ar
    22     5     4   ar
    23     6     1   ar
    24     4     3   ar
    25     1     2   ar
    26     1     9    1
    27     3     2   ar
    28     2     8    1
    29     9    10    1
    30    27    26    2
    31    27    35    1
    32    26    30    1
    33    16    15   ar
    34    16    23    1
    35    15    19    1
    36    35    34    3
    37    23    22    3
