@<TRIPOS>MOLECULE
mol_data/noopt/geoms/mol2/6gd6gd.out
 24 25 0 0 0
SMALL
GASTEIGER

@<TRIPOS>ATOM
      1 C          -4.5775   -2.0270    0.0001 C.ar    1  LIG1        0.0708
      2 C          -3.1706   -2.0270    0.0001 C.ar    1  LIG1       -0.0308
      3 C          -2.5039   -0.8004    0.0001 C.ar    1  LIG1       -0.0399
      4 C          -3.2580    0.3743   -0.0001 C.ar    1  LIG1        0.0758
      5 C          -4.6612    0.2715   -0.0003 C.ar    1  LIG1        0.0672
      6 N          -5.3207   -0.9034   -0.0001 N.ar    1  LIG1       -0.3485
      7 H          -1.4054   -0.7607   -0.0009 H       1  LIG1        0.0632
      8 H          -2.5135   -3.1487    0.0004 H       1  LIG1        0.0644
      9 S          -5.2431   -3.1436    0.0002 S.3     1  LIG1       -0.1253
     10 H          -4.4062   -4.1515    0.0002 H       1  LIG1        0.1085
     11 N          -2.1789    2.5700   -0.0005 N.1     1  LIG1       -0.1908
     12 C          -2.6846    1.5410   -0.0003 C.1     1  LIG1        0.1012
     13 C          -6.8088    1.2233   -0.0003 C.2     1  LIG1        0.1059
     14 C          -5.4065    1.3366   -0.0004 C.2     1  LIG1        0.0310
     15 C          -4.8408    2.6129   -0.0003 C.2     1  LIG1       -0.0315
     16 C          -5.6871    3.7231   -0.0003 C.2     1  LIG1        0.0681
     17 C          -7.0774    3.5076   -0.0004 C.2     1  LIG1        0.0354
     18 N          -7.6401    2.2834   -0.0003 N.am    1  LIG1       -0.2131
     19 H          -3.7491    2.7410   -0.0014 H       1  LIG1        0.0638
     20 H          -7.9061    4.5092   -0.0003 H       1  LIG1        0.0815
     21 S          -7.3823    0.0567   -0.0003 S.2     1  LIG1       -0.0327
     22 H          -6.4670   -0.8805   -0.0003 H       1  LIG1        0.1664
     23 N          -4.7883    5.9986   -0.0004 N.1     1  LIG1       -0.1908
     24 C          -5.2095    4.9322   -0.0004 C.1     1  LIG1        0.1005
@<TRIPOS>BOND
     1    19    15    1
     2     7     3    1
     3    11    12    3
     4    23    24    3
     5    14     5    2
     6    14    13    1
     7    14    15    1
     8    17    18    2
     9    17    20    1
    10    17    16    1
    11    24    16    1
    12     5     6   ar
    13     5     4   ar
    14    12     4    1
    15    13    21    2
    16    13    18    1
    17    15    16    2
    18    22     6    1
    19     6     1   ar
    20     4     3   ar
    21     1     2   ar
    22     1     9    1
    23     3     2   ar
    24     2     8    1
    25     9    10    1
