@<TRIPOS>MOLECULE
mol_data/noopt/geoms/mol2/6gd6gd6gd-.out
 35 37 0 0 0
SMALL
GASTEIGER

@<TRIPOS>ATOM
      1 C          -4.5775   -2.0270    0.0001 C.ar    1  LIG1        0.0708
      2 C          -3.1706   -2.0270    0.0001 C.ar    1  LIG1       -0.0308
      3 C          -2.5039   -0.8004    0.0001 C.ar    1  LIG1       -0.0399
      4 C          -3.2580    0.3743   -0.0001 C.ar    1  LIG1        0.0758
      5 C          -4.6612    0.2715   -0.0003 C.ar    1  LIG1        0.0673
      6 N          -5.3207   -0.9034   -0.0001 N.ar    1  LIG1       -0.3485
      7 H          -1.4054   -0.7607   -0.0009 H       1  LIG1        0.0632
      8 H          -2.5135   -3.1487    0.0004 H       1  LIG1        0.0644
      9 S          -5.2431   -3.1436    0.0002 S.3     1  LIG1       -0.1253
     10 H          -4.4062   -4.1515    0.0002 H       1  LIG1        0.1085
     11 N          -2.1789    2.5700   -0.0005 N.1     1  LIG1       -0.1908
     12 C          -2.6846    1.5410   -0.0003 C.1     1  LIG1        0.1012
     13 C          -6.8088    1.2233   -0.0003 C.ar    1  LIG1        0.0940
     14 C          -5.4065    1.3366   -0.0004 C.ar    1  LIG1        0.0315
     15 C          -4.8408    2.6129   -0.0003 C.ar    1  LIG1       -0.0307
     16 C          -5.6871    3.7231   -0.0003 C.ar    1  LIG1        0.0764
     17 C          -7.0774    3.5076   -0.0004 C.ar    1  LIG1        0.0672
     18 N          -7.6401    2.2834   -0.0003 N.ar    1  LIG1       -0.3472
     19 H          -3.7491    2.7410   -0.0014 H       1  LIG1        0.0638
     20 S          -7.3823    0.0567   -0.0003 S.2     1  LIG1       -0.0321
     21 H          -6.4670   -0.8805   -0.0003 H       1  LIG1        0.1664
     22 N          -4.7883    5.9986   -0.0004 N.1     1  LIG1       -0.1908
     23 C          -5.2095    4.9322   -0.0004 C.1     1  LIG1        0.1013
     24 C          -9.2946    4.2834   -0.0212 C.2     1  LIG1        0.1059
     25 C          -7.9061    4.5092   -0.0003 C.2     1  LIG1        0.0310
     26 C          -7.4452    5.8268    0.0208 C.2     1  LIG1       -0.0315
     27 C          -8.3781    6.8652    0.0200 C.2     1  LIG1        0.0681
     28 C          -9.7464    6.5385   -0.0020 C.2     1  LIG1        0.0354
     29 N         -10.2086    5.2731   -0.0223 N.am    1  LIG1       -0.2131
     30 H          -6.3674    6.0423    0.0365 H       1  LIG1        0.0638
     31 H         -10.6531    7.4702   -0.0035 H       1  LIG1        0.0815
     32 S          -9.7721    3.0745   -0.0412 S.2     1  LIG1       -0.0327
     33 H          -8.7842    2.2142   -0.0479 H       1  LIG1        0.1664
     34 N          -7.6658    9.2055    0.0556 N.1     1  LIG1       -0.1908
     35 C          -7.9996    8.1087    0.0389 C.1     1  LIG1        0.1005
@<TRIPOS>BOND
     1    33    18    1
     2    32    24    2
     3    29    24    1
     4    29    28    2
     5    24    25    1
     6    31    28    1
     7    28    27    1
     8    19    15    1
     9     7     3    1
    10    11    12    3
    11    22    23    3
    12    14     5    2
    13    14    13   ar
    14    14    15   ar
    15    17    18   ar
    16    17    25    2
    17    17    16   ar
    18    23    16    1
    19     5     6   ar
    20     5     4   ar
    21    12     4    1
    22    13    20    2
    23    13    18   ar
    24    15    16   ar
    25    21     6    1
    26    25    26    1
    27     6     1   ar
    28     4     3   ar
    29     1     2   ar
    30     1     9    1
    31     3     2   ar
    32     2     8    1
    33     9    10    1
    34    27    26    2
    35    27    35    1
    36    26    30    1
    37    35    34    3
