@<TRIPOS>MOLECULE
mol_data/noopt/geoms/mol2/6gd6gd-6gd6gd-.out
 46 49 0 0 0
SMALL
GASTEIGER

@<TRIPOS>ATOM
      1 C          -4.5775   -2.0270    0.0001 C.ar    1  LIG1        0.0708
      2 C          -3.1706   -2.0270    0.0001 C.ar    1  LIG1       -0.0308
      3 C          -2.5039   -0.8004    0.0001 C.ar    1  LIG1       -0.0399
      4 C          -3.2580    0.3743   -0.0001 C.ar    1  LIG1        0.0758
      5 C          -4.6612    0.2715   -0.0003 C.ar    1  LIG1        0.0673
      6 N          -5.3207   -0.9034   -0.0001 N.ar    1  LIG1       -0.3485
      7 H          -1.4054   -0.7607   -0.0009 H       1  LIG1        0.0632
      8 H          -2.5135   -3.1487    0.0004 H       1  LIG1        0.0644
      9 S          -5.2431   -3.1436    0.0002 S.3     1  LIG1       -0.1253
     10 H          -4.4062   -4.1515    0.0002 H       1  LIG1        0.1085
     11 N          -2.1789    2.5700   -0.0005 N.1     1  LIG1       -0.1908
     12 C          -2.6846    1.5410   -0.0003 C.1     1  LIG1        0.1012
     13 C          -6.8087    1.2234   -0.0215 C.ar    1  LIG1        0.0940
     14 C          -5.4065    1.3366   -0.0004 C.ar    1  LIG1        0.0315
     15 C          -4.8409    2.6128    0.0206 C.ar    1  LIG1       -0.0307
     16 C          -5.6872    3.7230    0.0196 C.ar    1  LIG1        0.0764
     17 C          -7.0774    3.5076   -0.0025 C.ar    1  LIG1        0.0674
     18 N          -7.6400    2.2835   -0.0227 N.ar    1  LIG1       -0.3472
     19 H          -3.7493    2.7408    0.0363 H       1  LIG1        0.0638
     20 S          -7.3820    0.0569   -0.0413 S.2     1  LIG1       -0.0321
     21 H          -6.4666   -0.8802   -0.0480 H       1  LIG1        0.1664
     22 N          -4.7887    5.9983    0.0550 N.1     1  LIG1       -0.1908
     23 C          -5.2098    4.9320    0.0384 C.1     1  LIG1        0.1013
     24 C          -9.2947    4.2833   -0.0051 C.ar    1  LIG1        0.0940
     25 C          -7.9061    4.5092   -0.0043 C.ar    1  LIG1        0.0315
     26 C          -7.4450    5.8270   -0.0051 C.ar    1  LIG1       -0.0307
     27 C          -8.3779    6.8653   -0.0068 C.ar    1  LIG1        0.0764
     28 C          -9.7464    6.5386   -0.0077 C.ar    1  LIG1        0.0672
     29 N         -10.2087    5.2730   -0.0067 N.ar    1  LIG1       -0.3472
     30 H          -6.3671    6.0425   -0.0055 H       1  LIG1        0.0638
     31 S          -9.7724    3.0743   -0.0043 S.2     1  LIG1       -0.0321
     32 H          -8.7845    2.2139   -0.0040 H       1  LIG1        0.1664
     33 N          -7.6653    9.2059   -0.0087 N.1     1  LIG1       -0.1908
     34 C          -7.9993    8.1090   -0.0078 C.1     1  LIG1        0.1013
     35 C         -12.0189    7.1333   -0.0310 C.2     1  LIG1        0.1059
     36 C         -10.6531    7.4702   -0.0092 C.2     1  LIG1        0.0310
     37 C         -10.2998    8.8207    0.0110 C.2     1  LIG1       -0.0315
     38 C         -11.3133    9.7805    0.0085 C.2     1  LIG1        0.0681
     39 C         -12.6509    9.3447   -0.0143 C.2     1  LIG1        0.0354
     40 N         -13.0096    8.0461   -0.0338 N.am    1  LIG1       -0.2131
     41 H          -9.2429    9.1223    0.0273 H       1  LIG1        0.0638
     42 H         -13.6296   10.2003   -0.0175 H       1  LIG1        0.0815
     43 S         -12.3974    5.8898   -0.0502 S.2     1  LIG1       -0.0327
     44 H         -11.3434    5.1119   -0.0566 H       1  LIG1        0.1664
     45 N         -10.7918   12.1707    0.0424 N.1     1  LIG1       -0.1908
     46 C         -11.0362   11.0505    0.0265 C.1     1  LIG1        0.1005
@<TRIPOS>BOND
     1    44    29    1
     2    43    35    2
     3    21     6    1
     4    20    13    2
     5    40    35    1
     6    40    39    2
     7    35    36    1
     8    18    13   ar
     9    18    32    1
    10    18    17   ar
    11    13    14   ar
    12    42    39    1
    13    39    38    1
    14    36    28    2
    15    36    37    1
    16    33    34    3
    17    34    27    1
    18    28    27   ar
    19    28    29   ar
    20    27    26   ar
    21    29    24   ar
    22    30    26    1
    23    26    25   ar
    24    24    25   ar
    25    24    31    2
    26    25    17    2
    27    17    16   ar
    28     7     3    1
    29    11    12    3
    30    14     5    2
    31    14    15   ar
    32    12     4    1
    33     5     6   ar
    34     5     4   ar
    35     6     1   ar
    36     4     3   ar
    37     1     2   ar
    38     1     9    1
    39     3     2   ar
    40     2     8    1
    41     9    10    1
    42    38    37    2
    43    38    46    1
    44    37    41    1
    45    16    15   ar
    46    16    23    1
    47    15    19    1
    48    46    45    3
    49    23    22    3
