@<TRIPOS>MOLECULE
mol_data/noopt/geoms/mol2/6ge6ge-6ge6ge-.out
 50 53 0 0 0
SMALL
GASTEIGER

@<TRIPOS>ATOM
      1 C          -4.5775   -2.0270    0.0001 C.ar    1  LIG1        0.0708
      2 C          -3.1706   -2.0270    0.0001 C.ar    1  LIG1       -0.0308
      3 C          -2.5039   -0.8004    0.0001 C.ar    1  LIG1       -0.0419
      4 C          -3.2580    0.3743   -0.0001 C.ar    1  LIG1        0.0487
      5 C          -4.6612    0.2715   -0.0003 C.ar    1  LIG1        0.0653
      6 N          -5.3207   -0.9034   -0.0001 N.ar    1  LIG1       -0.3486
      7 H          -1.4054   -0.7607   -0.0009 H       1  LIG1        0.0631
      8 H          -2.5135   -3.1487    0.0004 H       1  LIG1        0.0644
      9 S          -5.2431   -3.1436    0.0002 S.3     1  LIG1       -0.1253
     10 H          -4.4062   -4.1515    0.0002 H       1  LIG1        0.1085
     11 C          -2.6846    1.5410   -0.0003 C.1     1  LIG1       -0.0676
     12 C          -2.1548    2.6190   -0.0005 C.1     1  LIG1       -0.1138
     13 H          -1.6828    3.5793   -0.0006 H       1  LIG1        0.1232
     14 C          -6.8087    1.2234   -0.0215 C.ar    1  LIG1        0.0940
     15 C          -5.4065    1.3366   -0.0004 C.ar    1  LIG1        0.0314
     16 C          -4.8409    2.6128    0.0206 C.ar    1  LIG1       -0.0327
     17 C          -5.6872    3.7230    0.0196 C.ar    1  LIG1        0.0493
     18 C          -7.0774    3.5076   -0.0025 C.ar    1  LIG1        0.0654
     19 N          -7.6400    2.2835   -0.0227 N.ar    1  LIG1       -0.3473
     20 H          -3.7493    2.7408    0.0363 H       1  LIG1        0.0638
     21 S          -7.3820    0.0569   -0.0413 S.2     1  LIG1       -0.0321
     22 H          -6.4666   -0.8802   -0.0480 H       1  LIG1        0.1664
     23 C          -5.2098    4.9320    0.0384 C.1     1  LIG1       -0.0676
     24 C          -4.7686    6.0491    0.0558 C.1     1  LIG1       -0.1138
     25 H          -4.3757    7.0442    0.0713 H       1  LIG1        0.1232
     26 C          -9.2947    4.2833   -0.0051 C.ar    1  LIG1        0.0940
     27 C          -7.9061    4.5092   -0.0043 C.ar    1  LIG1        0.0314
     28 C          -7.4450    5.8270   -0.0051 C.ar    1  LIG1       -0.0327
     29 C          -8.3779    6.8653   -0.0068 C.ar    1  LIG1        0.0493
     30 C          -9.7464    6.5386   -0.0077 C.ar    1  LIG1        0.0652
     31 N         -10.2087    5.2730   -0.0067 N.ar    1  LIG1       -0.3473
     32 H          -6.3671    6.0425   -0.0055 H       1  LIG1        0.0638
     33 S          -9.7724    3.0743   -0.0043 S.2     1  LIG1       -0.0321
     34 H          -8.7845    2.2139   -0.0040 H       1  LIG1        0.1664
     35 C          -7.9993    8.1090   -0.0078 C.1     1  LIG1       -0.0676
     36 C          -7.6494    9.2581   -0.0087 C.1     1  LIG1       -0.1138
     37 H          -7.3378   10.2817   -0.0095 H       1  LIG1        0.1232
     38 C         -12.0189    7.1333   -0.0310 C.2     1  LIG1        0.1059
     39 C         -10.6531    7.4702   -0.0092 C.2     1  LIG1        0.0309
     40 C         -10.2998    8.8207    0.0110 C.2     1  LIG1       -0.0335
     41 C         -11.3133    9.7805    0.0085 C.2     1  LIG1        0.0411
     42 C         -12.6509    9.3447   -0.0143 C.2     1  LIG1        0.0334
     43 N         -13.0096    8.0461   -0.0338 N.am    1  LIG1       -0.2132
     44 H          -9.2429    9.1223    0.0273 H       1  LIG1        0.0637
     45 H         -13.6296   10.2003   -0.0175 H       1  LIG1        0.0814
     46 S         -12.3974    5.8898   -0.0502 S.2     1  LIG1       -0.0327
     47 H         -11.3434    5.1119   -0.0566 H       1  LIG1        0.1664
     48 C         -11.0362   11.0505    0.0265 C.1     1  LIG1       -0.0683
     49 C         -10.7802   12.2240    0.0432 C.1     1  LIG1       -0.1139
     50 H         -10.5521   13.2693    0.0580 H       1  LIG1        0.1232
@<TRIPOS>BOND
     1    47    31    1
     2    46    38    2
     3    22     6    1
     4    21    14    2
     5    43    38    1
     6    43    42    2
     7    38    39    1
     8    19    14   ar
     9    19    34    1
    10    19    18   ar
    11    14    15   ar
    12    45    42    1
    13    42    41    1
    14    37    36    1
    15    39    30    2
    16    39    40    1
    17    36    35    3
    18    35    29    1
    19    30    29   ar
    20    30    31   ar
    21    29    28   ar
    22    31    26   ar
    23    32    28    1
    24    28    27   ar
    25    26    27   ar
    26    26    33    2
    27    27    18    2
    28    18    17   ar
    29     7     3    1
    30    13    12    1
    31    12    11    3
    32    15     5    2
    33    15    16   ar
    34    11     4    1
    35     5     6   ar
    36     5     4   ar
    37     6     1   ar
    38     4     3   ar
    39     1     2   ar
    40     1     9    1
    41     3     2   ar
    42     2     8    1
    43     9    10    1
    44    41    40    2
    45    41    48    1
    46    40    44    1
    47    17    16   ar
    48    17    23    1
    49    16    20    1
    50    48    49    3
    51    23    24    3
    52    49    50    1
    53    24    25    1
