@<TRIPOS>MOLECULE
mol_data/noopt/geoms/mol2/6ge6ge6ge6ge-.out
 50 53 0 0 0
SMALL
GASTEIGER

@<TRIPOS>ATOM
      1 C          -4.5775   -2.0270    0.0001 C.ar    1  LIG1        0.0708
      2 C          -3.1706   -2.0270    0.0001 C.ar    1  LIG1       -0.0308
      3 C          -2.5039   -0.8004    0.0001 C.ar    1  LIG1       -0.0419
      4 C          -3.2580    0.3743   -0.0001 C.ar    1  LIG1        0.0487
      5 C          -4.6612    0.2715   -0.0003 C.ar    1  LIG1        0.0653
      6 N          -5.3207   -0.9034   -0.0001 N.ar    1  LIG1       -0.3486
      7 H          -1.4054   -0.7607   -0.0009 H       1  LIG1        0.0631
      8 H          -2.5135   -3.1487    0.0004 H       1  LIG1        0.0644
      9 S          -5.2431   -3.1436    0.0002 S.3     1  LIG1       -0.1253
     10 H          -4.4062   -4.1515    0.0002 H       1  LIG1        0.1085
     11 C          -2.6846    1.5410   -0.0003 C.1     1  LIG1       -0.0676
     12 C          -2.1548    2.6190   -0.0005 C.1     1  LIG1       -0.1138
     13 H          -1.6828    3.5793   -0.0006 H       1  LIG1        0.1232
     14 C          -6.8088    1.2233   -0.0003 C.ar    1  LIG1        0.0940
     15 C          -5.4065    1.3366   -0.0004 C.ar    1  LIG1        0.0314
     16 C          -4.8408    2.6129   -0.0003 C.ar    1  LIG1       -0.0327
     17 C          -5.6871    3.7231   -0.0003 C.ar    1  LIG1        0.0493
     18 C          -7.0774    3.5076   -0.0004 C.ar    1  LIG1        0.0654
     19 N          -7.6401    2.2834   -0.0003 N.ar    1  LIG1       -0.3473
     20 H          -3.7491    2.7410   -0.0014 H       1  LIG1        0.0638
     21 S          -7.3823    0.0567   -0.0003 S.2     1  LIG1       -0.0321
     22 H          -6.4670   -0.8805   -0.0003 H       1  LIG1        0.1664
     23 C          -5.2095    4.9322   -0.0004 C.1     1  LIG1       -0.0676
     24 C          -4.7682    6.0494   -0.0004 C.1     1  LIG1       -0.1138
     25 H          -4.3752    7.0446   -0.0005 H       1  LIG1        0.1232
     26 C          -9.2948    4.2833   -0.0001 C.ar    1  LIG1        0.0940
     27 C          -7.9061    4.5092   -0.0003 C.ar    1  LIG1        0.0314
     28 C          -7.4450    5.8270   -0.0001 C.ar    1  LIG1       -0.0327
     29 C          -8.3780    6.8653    0.0002 C.ar    1  LIG1        0.0493
     30 C          -9.7465    6.5385    0.0002 C.ar    1  LIG1        0.0652
     31 N         -10.2087    5.2730    0.0002 N.ar    1  LIG1       -0.3473
     32 H          -6.3672    6.0425   -0.0012 H       1  LIG1        0.0638
     33 S          -9.7724    3.0743   -0.0002 S.2     1  LIG1       -0.0321
     34 H          -8.7845    2.2139   -0.0002 H       1  LIG1        0.1664
     35 C          -7.9994    8.1090    0.0002 C.1     1  LIG1       -0.0676
     36 C          -7.6495    9.2581    0.0002 C.1     1  LIG1       -0.1138
     37 H          -7.3379   10.2817    0.0002 H       1  LIG1        0.1232
     38 C         -12.0189    7.1333   -0.0204 C.2     1  LIG1        0.1059
     39 C         -10.6531    7.4702    0.0005 C.2     1  LIG1        0.0309
     40 C         -10.2998    8.8206    0.0216 C.2     1  LIG1       -0.0335
     41 C         -11.3134    9.7805    0.0211 C.2     1  LIG1        0.0411
     42 C         -12.6509    9.3447   -0.0008 C.2     1  LIG1        0.0334
     43 N         -13.0097    8.0461   -0.0212 N.am    1  LIG1       -0.2132
     44 H          -9.2429    9.1222    0.0373 H       1  LIG1        0.0637
     45 H         -13.6297   10.2002   -0.0022 H       1  LIG1        0.0814
     46 S         -12.3975    5.8898   -0.0404 S.2     1  LIG1       -0.0327
     47 H         -11.3435    5.1119   -0.0472 H       1  LIG1        0.1664
     48 C         -11.0363   11.0505    0.0401 C.1     1  LIG1       -0.0683
     49 C         -10.7802   12.2239    0.0577 C.1     1  LIG1       -0.1139
     50 H         -10.5522   13.2692    0.0734 H       1  LIG1        0.1232
@<TRIPOS>BOND
     1    47    31    1
     2    46    38    2
     3    43    38    1
     4    43    42    2
     5    38    39    1
     6    45    42    1
     7    20    16    1
     8    32    28    1
     9     7     3    1
    10    42    41    1
    11    13    12    1
    12    25    24    1
    13    12    11    3
    14    24    23    3
    15    15     5    2
    16    15    14   ar
    17    15    16   ar
    18    18    19   ar
    19    18    27    2
    20    18    17   ar
    21    23    17    1
    22    11     4    1
    23     5     6   ar
    24     5     4   ar
    25    14    21    2
    26    14    19   ar
    27    16    17   ar
    28    22     6    1
    29    19    34    1
    30    27    26   ar
    31    27    28   ar
    32    33    26    2
    33     6     1   ar
    34     4     3   ar
    35    26    31   ar
    36    28    29   ar
    37     1     2   ar
    38     1     9    1
    39     2     3   ar
    40     2     8    1
    41    31    30   ar
    42    30    29   ar
    43    30    39    2
    44    29    35    1
    45    35    36    3
    46     9    10    1
    47    36    37    1
    48    39    40    1
    49    41    40    2
    50    41    48    1
    51    40    44    1
    52    48    49    3
    53    49    50    1
