@<TRIPOS>MOLECULE
mol_data/noopt/geoms/mol2/6ge6ge6ge.out
 38 40 0 0 0
SMALL
GASTEIGER

@<TRIPOS>ATOM
      1 C          -4.5775   -2.0270    0.0001 C.ar    1  LIG1        0.0708
      2 C          -3.1706   -2.0270    0.0001 C.ar    1  LIG1       -0.0308
      3 C          -2.5039   -0.8004    0.0001 C.ar    1  LIG1       -0.0419
      4 C          -3.2580    0.3743   -0.0001 C.ar    1  LIG1        0.0487
      5 C          -4.6612    0.2715   -0.0003 C.ar    1  LIG1        0.0653
      6 N          -5.3207   -0.9034   -0.0001 N.ar    1  LIG1       -0.3486
      7 H          -1.4054   -0.7607   -0.0009 H       1  LIG1        0.0631
      8 H          -2.5135   -3.1487    0.0004 H       1  LIG1        0.0644
      9 S          -5.2431   -3.1436    0.0002 S.3     1  LIG1       -0.1253
     10 H          -4.4062   -4.1515    0.0002 H       1  LIG1        0.1085
     11 C          -2.6846    1.5410   -0.0003 C.1     1  LIG1       -0.0676
     12 C          -2.1548    2.6190   -0.0005 C.1     1  LIG1       -0.1138
     13 H          -1.6828    3.5793   -0.0006 H       1  LIG1        0.1232
     14 C          -6.8088    1.2233   -0.0003 C.ar    1  LIG1        0.0940
     15 C          -5.4065    1.3366   -0.0004 C.ar    1  LIG1        0.0314
     16 C          -4.8408    2.6129   -0.0003 C.ar    1  LIG1       -0.0327
     17 C          -5.6871    3.7231   -0.0003 C.ar    1  LIG1        0.0493
     18 C          -7.0774    3.5076   -0.0004 C.ar    1  LIG1        0.0652
     19 N          -7.6401    2.2834   -0.0003 N.ar    1  LIG1       -0.3473
     20 H          -3.7491    2.7410   -0.0014 H       1  LIG1        0.0638
     21 S          -7.3823    0.0567   -0.0003 S.2     1  LIG1       -0.0321
     22 H          -6.4670   -0.8805   -0.0003 H       1  LIG1        0.1664
     23 C          -5.2095    4.9322   -0.0004 C.1     1  LIG1       -0.0676
     24 C          -4.7682    6.0494   -0.0004 C.1     1  LIG1       -0.1138
     25 H          -4.3752    7.0446   -0.0005 H       1  LIG1        0.1232
     26 C          -9.2948    4.2833   -0.0001 C.2     1  LIG1        0.1059
     27 C          -7.9061    4.5092   -0.0003 C.2     1  LIG1        0.0309
     28 C          -7.4450    5.8270   -0.0001 C.2     1  LIG1       -0.0335
     29 C          -8.3780    6.8653    0.0002 C.2     1  LIG1        0.0411
     30 C          -9.7465    6.5385    0.0002 C.2     1  LIG1        0.0334
     31 N         -10.2087    5.2730    0.0002 N.am    1  LIG1       -0.2132
     32 H          -6.3672    6.0425   -0.0012 H       1  LIG1        0.0637
     33 H         -10.6531    7.4701    0.0005 H       1  LIG1        0.0814
     34 S          -9.7724    3.0743   -0.0002 S.2     1  LIG1       -0.0327
     35 H          -8.7845    2.2139   -0.0002 H       1  LIG1        0.1664
     36 C          -7.9994    8.1090    0.0002 C.1     1  LIG1       -0.0683
     37 C          -7.6495    9.2581    0.0002 C.1     1  LIG1       -0.1139
     38 H          -7.3379   10.2817    0.0002 H       1  LIG1        0.1232
@<TRIPOS>BOND
     1    20    16    1
     2    32    28    1
     3     7     3    1
     4    13    12    1
     5    25    24    1
     6    12    11    3
     7    24    23    3
     8    15     5    2
     9    15    14   ar
    10    15    16   ar
    11    18    19   ar
    12    18    27    2
    13    18    17   ar
    14    23    17    1
    15     5     6   ar
    16     5     4   ar
    17    11     4    1
    18    14    21    2
    19    14    19   ar
    20    16    17   ar
    21    22     6    1
    22    19    35    1
    23    27    26    1
    24    27    28    1
    25    34    26    2
    26     6     1   ar
    27     4     3   ar
    28    26    31    1
    29    28    29    2
    30     1     2   ar
    31     1     9    1
    32     3     2   ar
    33     2     8    1
    34    31    30    2
    35    30    29    1
    36    30    33    1
    37    29    36    1
    38    36    37    3
    39     9    10    1
    40    37    38    1
