@<TRIPOS>MOLECULE
mol_data/noopt/geoms/mol2/6ge6ge-6ge-6ge-.out
 50 53 0 0 0
SMALL
GASTEIGER

@<TRIPOS>ATOM
      1 C          -4.5775   -2.0270    0.0001 C.ar    1  LIG1        0.0708
      2 C          -3.1706   -2.0270    0.0001 C.ar    1  LIG1       -0.0308
      3 C          -2.5039   -0.8004    0.0001 C.ar    1  LIG1       -0.0419
      4 C          -3.2580    0.3743   -0.0001 C.ar    1  LIG1        0.0487
      5 C          -4.6612    0.2715   -0.0003 C.ar    1  LIG1        0.0653
      6 N          -5.3207   -0.9034   -0.0001 N.ar    1  LIG1       -0.3486
      7 H          -1.4054   -0.7607   -0.0009 H       1  LIG1        0.0631
      8 H          -2.5135   -3.1487    0.0004 H       1  LIG1        0.0644
      9 S          -5.2431   -3.1436    0.0002 S.3     1  LIG1       -0.1253
     10 H          -4.4062   -4.1515    0.0002 H       1  LIG1        0.1085
     11 C          -2.6846    1.5410   -0.0003 C.1     1  LIG1       -0.0676
     12 C          -2.1548    2.6190   -0.0005 C.1     1  LIG1       -0.1138
     13 H          -1.6828    3.5793   -0.0006 H       1  LIG1        0.1232
     14 C          -6.8087    1.2234   -0.0215 C.ar    1  LIG1        0.0940
     15 C          -5.4065    1.3366   -0.0004 C.ar    1  LIG1        0.0314
     16 C          -4.8409    2.6128    0.0206 C.ar    1  LIG1       -0.0327
     17 C          -5.6872    3.7230    0.0196 C.ar    1  LIG1        0.0493
     18 C          -7.0774    3.5076   -0.0025 C.ar    1  LIG1        0.0654
     19 N          -7.6400    2.2835   -0.0227 N.ar    1  LIG1       -0.3473
     20 H          -3.7493    2.7408    0.0363 H       1  LIG1        0.0638
     21 S          -7.3820    0.0569   -0.0413 S.2     1  LIG1       -0.0321
     22 H          -6.4666   -0.8802   -0.0480 H       1  LIG1        0.1664
     23 C          -5.2098    4.9320    0.0384 C.1     1  LIG1       -0.0676
     24 C          -4.7686    6.0491    0.0558 C.1     1  LIG1       -0.1138
     25 H          -4.3757    7.0442    0.0713 H       1  LIG1        0.1232
     26 C          -9.2946    4.2834   -0.0262 C.ar    1  LIG1        0.0940
     27 C          -7.9061    4.5092   -0.0043 C.ar    1  LIG1        0.0314
     28 C          -7.4452    5.8269    0.0158 C.ar    1  LIG1       -0.0327
     29 C          -8.3781    6.8652    0.0131 C.ar    1  LIG1        0.0493
     30 C          -9.7464    6.5386   -0.0098 C.ar    1  LIG1        0.0652
     31 N         -10.2085    5.2731   -0.0292 N.ar    1  LIG1       -0.3473
     32 H          -6.3674    6.0424    0.0322 H       1  LIG1        0.0638
     33 S          -9.7721    3.0745   -0.0453 S.2     1  LIG1       -0.0321
     34 H          -8.7841    2.2142   -0.0517 H       1  LIG1        0.1664
     35 C          -7.9996    8.1088    0.0310 C.1     1  LIG1       -0.0676
     36 C          -7.6499    9.2578    0.0475 C.1     1  LIG1       -0.1138
     37 H          -7.3383   10.2814    0.0623 H       1  LIG1        0.1232
     38 C         -12.0188    7.1333   -0.0360 C.2     1  LIG1        0.1059
     39 C         -10.6531    7.4702   -0.0132 C.2     1  LIG1        0.0309
     40 C         -10.2998    8.8207    0.0060 C.2     1  LIG1       -0.0335
     41 C         -11.3133    9.7806    0.0015 C.2     1  LIG1        0.0411
     42 C         -12.6508    9.3447   -0.0222 C.2     1  LIG1        0.0334
     43 N         -13.0095    8.0461   -0.0407 N.am    1  LIG1       -0.2132
     44 H          -9.2429    9.1223    0.0231 H       1  LIG1        0.0637
     45 H         -13.6295   10.2003   -0.0271 H       1  LIG1        0.0814
     46 S         -12.3974    5.8898   -0.0543 S.2     1  LIG1       -0.0327
     47 H         -11.3434    5.1119   -0.0605 H       1  LIG1        0.1664
     48 C         -11.0362   11.0506    0.0185 C.1     1  LIG1       -0.0683
     49 C         -10.7802   12.2241    0.0343 C.1     1  LIG1       -0.1139
     50 H         -10.5521   13.2694    0.0483 H       1  LIG1        0.1232
@<TRIPOS>BOND
     1    47    31    1
     2    46    38    2
     3    34    19    1
     4    22     6    1
     5    33    26    2
     6    21    14    2
     7    43    38    1
     8    43    42    2
     9    38    39    1
    10    31    26   ar
    11    31    30   ar
    12    45    42    1
    13    26    27   ar
    14    19    14   ar
    15    19    18   ar
    16    42    41    1
    17    14    15   ar
    18    39    30    2
    19    39    40    1
    20    30    29   ar
    21    27    18    2
    22    27    28   ar
    23    18    17   ar
    24     7     3    1
    25    13    12    1
    26    12    11    3
    27    15     5    2
    28    15    16   ar
    29    11     4    1
    30     5     6   ar
    31     5     4   ar
    32     6     1   ar
    33     4     3   ar
    34     1     2   ar
    35     1     9    1
    36     2     3   ar
    37     2     8    1
    38     9    10    1
    39    41    40    2
    40    41    48    1
    41    40    44    1
    42    29    28   ar
    43    29    35    1
    44    28    32    1
    45    48    49    3
    46    17    16   ar
    47    17    23    1
    48    16    20    1
    49    35    36    3
    50    49    50    1
    51    23    24    3
    52    36    37    1
    53    24    25    1
