@<TRIPOS>MOLECULE
mol_data/noopt/geoms/mol2/6ge6ge6ge-6ge.out
 50 53 0 0 0
SMALL
GASTEIGER

@<TRIPOS>ATOM
      1 C          -4.5775   -2.0270    0.0001 C.ar    1  LIG1        0.0708
      2 C          -3.1706   -2.0270    0.0001 C.ar    1  LIG1       -0.0308
      3 C          -2.5039   -0.8004    0.0001 C.ar    1  LIG1       -0.0419
      4 C          -3.2580    0.3743   -0.0001 C.ar    1  LIG1        0.0487
      5 C          -4.6612    0.2715   -0.0003 C.ar    1  LIG1        0.0653
      6 N          -5.3207   -0.9034   -0.0001 N.ar    1  LIG1       -0.3486
      7 H          -1.4054   -0.7607   -0.0009 H       1  LIG1        0.0631
      8 H          -2.5135   -3.1487    0.0004 H       1  LIG1        0.0644
      9 S          -5.2431   -3.1436    0.0002 S.3     1  LIG1       -0.1253
     10 H          -4.4062   -4.1515    0.0002 H       1  LIG1        0.1085
     11 C          -2.6846    1.5410   -0.0003 C.1     1  LIG1       -0.0676
     12 C          -2.1548    2.6190   -0.0005 C.1     1  LIG1       -0.1138
     13 H          -1.6828    3.5793   -0.0006 H       1  LIG1        0.1232
     14 C          -6.8088    1.2233   -0.0003 C.ar    1  LIG1        0.0940
     15 C          -5.4065    1.3366   -0.0004 C.ar    1  LIG1        0.0314
     16 C          -4.8408    2.6129   -0.0003 C.ar    1  LIG1       -0.0327
     17 C          -5.6871    3.7231   -0.0003 C.ar    1  LIG1        0.0493
     18 C          -7.0774    3.5076   -0.0004 C.ar    1  LIG1        0.0654
     19 N          -7.6401    2.2834   -0.0003 N.ar    1  LIG1       -0.3473
     20 H          -3.7491    2.7410   -0.0014 H       1  LIG1        0.0638
     21 S          -7.3823    0.0567   -0.0003 S.2     1  LIG1       -0.0321
     22 H          -6.4670   -0.8805   -0.0003 H       1  LIG1        0.1664
     23 C          -5.2095    4.9322   -0.0004 C.1     1  LIG1       -0.0676
     24 C          -4.7682    6.0494   -0.0004 C.1     1  LIG1       -0.1138
     25 H          -4.3752    7.0446   -0.0005 H       1  LIG1        0.1232
     26 C          -9.2946    4.2834   -0.0212 C.ar    1  LIG1        0.0940
     27 C          -7.9061    4.5092   -0.0003 C.ar    1  LIG1        0.0314
     28 C          -7.4452    5.8268    0.0208 C.ar    1  LIG1       -0.0327
     29 C          -8.3781    6.8652    0.0200 C.ar    1  LIG1        0.0493
     30 C          -9.7464    6.5385   -0.0020 C.ar    1  LIG1        0.0652
     31 N         -10.2086    5.2731   -0.0223 N.ar    1  LIG1       -0.3473
     32 H          -6.3674    6.0423    0.0365 H       1  LIG1        0.0638
     33 S          -9.7721    3.0745   -0.0412 S.2     1  LIG1       -0.0321
     34 H          -8.7842    2.2142   -0.0479 H       1  LIG1        0.1664
     35 C          -7.9996    8.1087    0.0389 C.1     1  LIG1       -0.0676
     36 C          -7.6499    9.2578    0.0564 C.1     1  LIG1       -0.1138
     37 H          -7.3384   10.2813    0.0720 H       1  LIG1        0.1232
     38 C         -12.0191    7.1332   -0.0042 C.2     1  LIG1        0.1059
     39 C         -10.6531    7.4702   -0.0035 C.2     1  LIG1        0.0309
     40 C         -10.2997    8.8208   -0.0042 C.2     1  LIG1       -0.0335
     41 C         -11.3132    9.7806   -0.0057 C.2     1  LIG1        0.0411
     42 C         -12.6509    9.3447   -0.0065 C.2     1  LIG1        0.0334
     43 N         -13.0098    8.0460   -0.0057 N.am    1  LIG1       -0.2132
     44 H          -9.2427    9.1225   -0.0047 H       1  LIG1        0.0637
     45 H         -13.6297   10.2002   -0.0078 H       1  LIG1        0.0814
     46 S         -12.3977    5.8896   -0.0035 S.2     1  LIG1       -0.0327
     47 H         -11.3438    5.1116   -0.0033 H       1  LIG1        0.1664
     48 C         -11.0360   11.0507   -0.0066 C.1     1  LIG1       -0.0683
     49 C         -10.7798   12.2243   -0.0074 C.1     1  LIG1       -0.1139
     50 H         -10.5516   13.2697   -0.0081 H       1  LIG1        0.1232
@<TRIPOS>BOND
     1    34    19    1
     2    33    26    2
     3    31    26   ar
     4    31    47    1
     5    31    30   ar
     6    26    27   ar
     7    50    49    1
     8    45    42    1
     9    49    48    3
    10    48    41    1
    11    42    41    1
    12    42    43    2
    13    41    40    2
    14    43    38    1
    15    44    40    1
    16    40    39    1
    17    38    39    1
    18    38    46    2
    19    39    30    2
    20    30    29   ar
    21    20    16    1
    22     7     3    1
    23    13    12    1
    24    25    24    1
    25    12    11    3
    26    24    23    3
    27    15     5    2
    28    15    14   ar
    29    15    16   ar
    30    18    19   ar
    31    18    27    2
    32    18    17   ar
    33    23    17    1
    34     5     4   ar
    35     5     6   ar
    36    11     4    1
    37    14    21    2
    38    14    19   ar
    39    16    17   ar
    40    22     6    1
    41    27    28   ar
    42     4     3   ar
    43     6     1   ar
    44     1     2   ar
    45     1     9    1
    46     2     3   ar
    47     2     8    1
    48     9    10    1
    49    29    28   ar
    50    29    35    1
    51    28    32    1
    52    35    36    3
    53    36    37    1
