@<TRIPOS>MOLECULE
mol_data/noopt/geoms/mol2/6ge6ge-6ge.out
 38 40 0 0 0
SMALL
GASTEIGER

@<TRIPOS>ATOM
      1 C          -4.5775   -2.0270    0.0001 C.ar    1  LIG1        0.0708
      2 C          -3.1706   -2.0270    0.0001 C.ar    1  LIG1       -0.0308
      3 C          -2.5039   -0.8004    0.0001 C.ar    1  LIG1       -0.0419
      4 C          -3.2580    0.3743   -0.0001 C.ar    1  LIG1        0.0487
      5 C          -4.6612    0.2715   -0.0003 C.ar    1  LIG1        0.0653
      6 N          -5.3207   -0.9034   -0.0001 N.ar    1  LIG1       -0.3486
      7 H          -1.4054   -0.7607   -0.0009 H       1  LIG1        0.0631
      8 H          -2.5135   -3.1487    0.0004 H       1  LIG1        0.0644
      9 S          -5.2431   -3.1436    0.0002 S.3     1  LIG1       -0.1253
     10 H          -4.4062   -4.1515    0.0002 H       1  LIG1        0.1085
     11 C          -2.6846    1.5410   -0.0003 C.1     1  LIG1       -0.0676
     12 C          -2.1548    2.6190   -0.0005 C.1     1  LIG1       -0.1138
     13 H          -1.6828    3.5793   -0.0006 H       1  LIG1        0.1232
     14 C          -6.8087    1.2234   -0.0215 C.ar    1  LIG1        0.0940
     15 C          -5.4065    1.3366   -0.0004 C.ar    1  LIG1        0.0314
     16 C          -4.8409    2.6128    0.0206 C.ar    1  LIG1       -0.0327
     17 C          -5.6872    3.7230    0.0196 C.ar    1  LIG1        0.0493
     18 C          -7.0774    3.5076   -0.0025 C.ar    1  LIG1        0.0652
     19 N          -7.6400    2.2835   -0.0227 N.ar    1  LIG1       -0.3473
     20 H          -3.7493    2.7408    0.0363 H       1  LIG1        0.0638
     21 S          -7.3820    0.0569   -0.0413 S.2     1  LIG1       -0.0321
     22 H          -6.4666   -0.8802   -0.0480 H       1  LIG1        0.1664
     23 C          -5.2098    4.9320    0.0384 C.1     1  LIG1       -0.0676
     24 C          -4.7686    6.0491    0.0558 C.1     1  LIG1       -0.1138
     25 H          -4.3757    7.0442    0.0713 H       1  LIG1        0.1232
     26 C          -9.2947    4.2833   -0.0051 C.2     1  LIG1        0.1059
     27 C          -7.9061    4.5092   -0.0043 C.2     1  LIG1        0.0309
     28 C          -7.4450    5.8270   -0.0051 C.2     1  LIG1       -0.0335
     29 C          -8.3779    6.8653   -0.0068 C.2     1  LIG1        0.0411
     30 C          -9.7464    6.5386   -0.0077 C.2     1  LIG1        0.0334
     31 N         -10.2087    5.2730   -0.0067 N.am    1  LIG1       -0.2132
     32 H          -6.3671    6.0425   -0.0055 H       1  LIG1        0.0637
     33 H         -10.6531    7.4702   -0.0092 H       1  LIG1        0.0814
     34 S          -9.7724    3.0743   -0.0043 S.2     1  LIG1       -0.0327
     35 H          -8.7845    2.2139   -0.0040 H       1  LIG1        0.1664
     36 C          -7.9993    8.1090   -0.0078 C.1     1  LIG1       -0.0683
     37 C          -7.6494    9.2581   -0.0087 C.1     1  LIG1       -0.1139
     38 H          -7.3378   10.2817   -0.0095 H       1  LIG1        0.1232
@<TRIPOS>BOND
     1    22     6    1
     2    21    14    2
     3    19    14   ar
     4    19    35    1
     5    19    18   ar
     6    14    15   ar
     7    38    37    1
     8    33    30    1
     9    37    36    3
    10    36    29    1
    11    30    29    1
    12    30    31    2
    13    29    28    2
    14    31    26    1
    15    32    28    1
    16    28    27    1
    17    26    27    1
    18    26    34    2
    19    27    18    2
    20    18    17   ar
    21     7     3    1
    22    13    12    1
    23    12    11    3
    24    15     5    2
    25    15    16   ar
    26    11     4    1
    27     5     6   ar
    28     5     4   ar
    29     6     1   ar
    30     4     3   ar
    31     1     2   ar
    32     1     9    1
    33     3     2   ar
    34     2     8    1
    35     9    10    1
    36    17    16   ar
    37    17    23    1
    38    16    20    1
    39    23    24    3
    40    24    25    1
