@<TRIPOS>MOLECULE
mol_data/noopt/geoms/mol2/6gf6gf6gf-6gf-.out
 46 49 0 0 0
SMALL
GASTEIGER

@<TRIPOS>ATOM
      1 C          -4.5775   -2.0270    0.0001 C.ar    1  LIG1        0.0709
      2 C          -3.1706   -2.0270    0.0001 C.ar    1  LIG1       -0.0285
      3 C          -2.5039   -0.8004    0.0001 C.ar    1  LIG1       -0.0157
      4 C          -3.2580    0.3743   -0.0001 C.ar    1  LIG1        0.1408
      5 C          -4.6612    0.2715   -0.0003 C.ar    1  LIG1        0.0918
      6 N          -5.3207   -0.9034   -0.0001 N.ar    1  LIG1       -0.3467
      7 H          -1.4054   -0.7607   -0.0009 H       1  LIG1        0.0655
      8 H          -2.5135   -3.1487    0.0004 H       1  LIG1        0.0644
      9 S          -5.2431   -3.1436    0.0002 S.3     1  LIG1       -0.1253
     10 H          -4.4062   -4.1515    0.0002 H       1  LIG1        0.1085
     11 O          -2.6846    1.5410   -0.0003 O.3     1  LIG1       -0.5047
     12 H          -3.3554    2.2278   -0.0003 H       1  LIG1        0.2922
     13 C          -6.8088    1.2233   -0.0003 C.ar    1  LIG1        0.0942
     14 C          -5.4065    1.3366   -0.0004 C.ar    1  LIG1        0.0360
     15 C          -4.8408    2.6129   -0.0003 C.ar    1  LIG1       -0.0064
     16 C          -5.6871    3.7231   -0.0003 C.ar    1  LIG1        0.1414
     17 C          -7.0774    3.5076   -0.0004 C.ar    1  LIG1        0.0919
     18 N          -7.6401    2.2834   -0.0003 N.ar    1  LIG1       -0.3454
     19 H          -3.7491    2.7410   -0.0014 H       1  LIG1        0.0662
     20 S          -7.3823    0.0567   -0.0003 S.2     1  LIG1       -0.0321
     21 H          -6.4670   -0.8805   -0.0003 H       1  LIG1        0.1665
     22 O          -5.2095    4.9322   -0.0004 O.3     1  LIG1       -0.5047
     23 H          -5.9335    5.5627   -0.0004 H       1  LIG1        0.2922
     24 C          -9.2946    4.2834   -0.0212 C.ar    1  LIG1        0.0942
     25 C          -7.9061    4.5092   -0.0003 C.ar    1  LIG1        0.0360
     26 C          -7.4452    5.8268    0.0208 C.ar    1  LIG1       -0.0064
     27 C          -8.3781    6.8652    0.0200 C.ar    1  LIG1        0.1414
     28 C          -9.7464    6.5385   -0.0020 C.ar    1  LIG1        0.0917
     29 N         -10.2086    5.2731   -0.0223 N.ar    1  LIG1       -0.3454
     30 H          -6.3674    6.0423    0.0365 H       1  LIG1        0.0662
     31 S          -9.7721    3.0745   -0.0412 S.2     1  LIG1       -0.0321
     32 H          -8.7842    2.2142   -0.0479 H       1  LIG1        0.1665
     33 O          -7.9996    8.1088    0.0389 O.3     1  LIG1       -0.5047
     34 H          -8.7721    8.6788    0.0436 H       1  LIG1        0.2922
     35 C         -12.0189    7.1333   -0.0254 C.2     1  LIG1        0.1062
     36 C         -10.6531    7.4702   -0.0035 C.2     1  LIG1        0.0355
     37 C         -10.2998    8.8207    0.0166 C.2     1  LIG1       -0.0073
     38 C         -11.3133    9.7805    0.0141 C.2     1  LIG1        0.1332
     39 C         -12.6509    9.3447   -0.0087 C.2     1  LIG1        0.0594
     40 N         -13.0096    8.0461   -0.0281 N.am    1  LIG1       -0.2108
     41 H          -9.2429    9.1223    0.0330 H       1  LIG1        0.0662
     42 H         -13.6296   10.2002   -0.0118 H       1  LIG1        0.0839
     43 S         -12.3975    5.8898   -0.0445 S.2     1  LIG1       -0.0327
     44 H         -11.3434    5.1119   -0.0510 H       1  LIG1        0.1665
     45 O         -11.0362   11.0506    0.0321 O.2     1  LIG1       -0.5054
     46 H         -11.8521   11.5565    0.0366 H       1  LIG1        0.2922
@<TRIPOS>BOND
     1    44    29    1
     2    32    18    1
     3    43    35    2
     4    31    24    2
     5    40    35    1
     6    40    39    2
     7    35    36    1
     8    29    24   ar
     9    29    28   ar
    10    24    25   ar
    11    42    39    1
    12    39    38    1
    13    36    28    2
    14    36    37    1
    15    28    27   ar
    16    19    15    1
    17     7     3    1
    18    14     5    2
    19    14    13   ar
    20    14    15   ar
    21    23    22    1
    22    17    18   ar
    23    17    25    2
    24    17    16   ar
    25    22    16    1
    26    12    11    1
    27    11     4    1
    28     5     6   ar
    29     5     4   ar
    30    13    20    2
    31    13    18   ar
    32    15    16   ar
    33    21     6    1
    34    25    26   ar
    35     6     1   ar
    36     4     3   ar
    37     1     2   ar
    38     1     9    1
    39     3     2   ar
    40     2     8    1
    41     9    10    1
    42    38    37    2
    43    38    45    1
    44    37    41    1
    45    27    26   ar
    46    27    33    1
    47    26    30    1
    48    45    46    1
    49    33    34    1
