@<TRIPOS>MOLECULE
mol_data/noopt/geoms/mol2/6gf6gf-.out
 24 25 0 0 0
SMALL
GASTEIGER

@<TRIPOS>ATOM
      1 C          -4.5775   -2.0270    0.0001 C.ar    1  LIG1        0.0709
      2 C          -3.1706   -2.0270    0.0001 C.ar    1  LIG1       -0.0285
      3 C          -2.5039   -0.8004    0.0001 C.ar    1  LIG1       -0.0157
      4 C          -3.2580    0.3743   -0.0001 C.ar    1  LIG1        0.1408
      5 C          -4.6612    0.2715   -0.0003 C.ar    1  LIG1        0.0917
      6 N          -5.3207   -0.9034   -0.0001 N.ar    1  LIG1       -0.3467
      7 H          -1.4054   -0.7607   -0.0009 H       1  LIG1        0.0655
      8 H          -2.5135   -3.1487    0.0004 H       1  LIG1        0.0644
      9 S          -5.2431   -3.1436    0.0002 S.3     1  LIG1       -0.1253
     10 H          -4.4062   -4.1515    0.0002 H       1  LIG1        0.1085
     11 O          -2.6846    1.5410   -0.0003 O.3     1  LIG1       -0.5047
     12 H          -3.3554    2.2278   -0.0003 H       1  LIG1        0.2922
     13 C          -6.8087    1.2234   -0.0215 C.2     1  LIG1        0.1062
     14 C          -5.4065    1.3366   -0.0004 C.2     1  LIG1        0.0355
     15 C          -4.8409    2.6128    0.0206 C.2     1  LIG1       -0.0073
     16 C          -5.6872    3.7230    0.0196 C.2     1  LIG1        0.1332
     17 C          -7.0774    3.5076   -0.0025 C.2     1  LIG1        0.0594
     18 N          -7.6400    2.2835   -0.0227 N.am    1  LIG1       -0.2108
     19 H          -3.7493    2.7408    0.0363 H       1  LIG1        0.0662
     20 H          -7.9061    4.5092   -0.0043 H       1  LIG1        0.0839
     21 S          -7.3820    0.0569   -0.0413 S.2     1  LIG1       -0.0327
     22 H          -6.4666   -0.8802   -0.0480 H       1  LIG1        0.1665
     23 O          -5.2098    4.9320    0.0384 O.2     1  LIG1       -0.5054
     24 H          -5.9338    5.5624    0.0430 H       1  LIG1        0.2922
@<TRIPOS>BOND
     1    22     6    1
     2    21    13    2
     3    18    13    1
     4    18    17    2
     5    13    14    1
     6    20    17    1
     7    17    16    1
     8     7     3    1
     9    14     5    2
    10    14    15    1
    11    12    11    1
    12     5     4   ar
    13     5     6   ar
    14    11     4    1
    15     4     3   ar
    16     6     1   ar
    17     1     2   ar
    18     1     9    1
    19     3     2   ar
    20     2     8    1
    21     9    10    1
    22    16    15    2
    23    16    23    1
    24    15    19    1
    25    23    24    1
