@<TRIPOS>MOLECULE
mol_data/noopt/geoms/mol2/6gf6gf-6gf-6gf-.out
 46 49 0 0 0
SMALL
GASTEIGER

@<TRIPOS>ATOM
      1 C          -4.5775   -2.0270    0.0001 C.ar    1  LIG1        0.0709
      2 C          -3.1706   -2.0270    0.0001 C.ar    1  LIG1       -0.0285
      3 C          -2.5039   -0.8004    0.0001 C.ar    1  LIG1       -0.0157
      4 C          -3.2580    0.3743   -0.0001 C.ar    1  LIG1        0.1408
      5 C          -4.6612    0.2715   -0.0003 C.ar    1  LIG1        0.0918
      6 N          -5.3207   -0.9034   -0.0001 N.ar    1  LIG1       -0.3467
      7 H          -1.4054   -0.7607   -0.0009 H       1  LIG1        0.0655
      8 H          -2.5135   -3.1487    0.0004 H       1  LIG1        0.0644
      9 S          -5.2431   -3.1436    0.0002 S.3     1  LIG1       -0.1253
     10 H          -4.4062   -4.1515    0.0002 H       1  LIG1        0.1085
     11 O          -2.6846    1.5410   -0.0003 O.3     1  LIG1       -0.5047
     12 H          -3.3554    2.2278   -0.0003 H       1  LIG1        0.2922
     13 C          -6.8087    1.2234   -0.0215 C.ar    1  LIG1        0.0942
     14 C          -5.4065    1.3366   -0.0004 C.ar    1  LIG1        0.0360
     15 C          -4.8409    2.6128    0.0206 C.ar    1  LIG1       -0.0064
     16 C          -5.6872    3.7230    0.0196 C.ar    1  LIG1        0.1414
     17 C          -7.0774    3.5076   -0.0025 C.ar    1  LIG1        0.0919
     18 N          -7.6400    2.2835   -0.0227 N.ar    1  LIG1       -0.3454
     19 H          -3.7493    2.7408    0.0363 H       1  LIG1        0.0662
     20 S          -7.3820    0.0569   -0.0413 S.2     1  LIG1       -0.0321
     21 H          -6.4666   -0.8802   -0.0480 H       1  LIG1        0.1665
     22 O          -5.2098    4.9320    0.0384 O.3     1  LIG1       -0.5047
     23 H          -5.9338    5.5624    0.0430 H       1  LIG1        0.2922
     24 C          -9.2946    4.2834   -0.0262 C.ar    1  LIG1        0.0942
     25 C          -7.9061    4.5092   -0.0043 C.ar    1  LIG1        0.0360
     26 C          -7.4452    5.8269    0.0158 C.ar    1  LIG1       -0.0064
     27 C          -8.3781    6.8652    0.0131 C.ar    1  LIG1        0.1414
     28 C          -9.7464    6.5386   -0.0098 C.ar    1  LIG1        0.0917
     29 N         -10.2085    5.2731   -0.0292 N.ar    1  LIG1       -0.3454
     30 H          -6.3674    6.0424    0.0322 H       1  LIG1        0.0662
     31 S          -9.7721    3.0745   -0.0453 S.2     1  LIG1       -0.0321
     32 H          -8.7841    2.2142   -0.0517 H       1  LIG1        0.1665
     33 O          -7.9996    8.1088    0.0310 O.3     1  LIG1       -0.5047
     34 H          -8.7720    8.6788    0.0354 H       1  LIG1        0.2922
     35 C         -12.0188    7.1333   -0.0360 C.2     1  LIG1        0.1062
     36 C         -10.6531    7.4702   -0.0132 C.2     1  LIG1        0.0355
     37 C         -10.2998    8.8207    0.0060 C.2     1  LIG1       -0.0073
     38 C         -11.3133    9.7806    0.0015 C.2     1  LIG1        0.1332
     39 C         -12.6508    9.3447   -0.0222 C.2     1  LIG1        0.0594
     40 N         -13.0095    8.0461   -0.0407 N.am    1  LIG1       -0.2108
     41 H          -9.2429    9.1223    0.0231 H       1  LIG1        0.0662
     42 H         -13.6295   10.2003   -0.0271 H       1  LIG1        0.0839
     43 S         -12.3974    5.8898   -0.0543 S.2     1  LIG1       -0.0327
     44 H         -11.3434    5.1119   -0.0605 H       1  LIG1        0.1665
     45 O         -11.0362   11.0506    0.0185 O.2     1  LIG1       -0.5054
     46 H         -11.8521   11.5565    0.0227 H       1  LIG1        0.2922
@<TRIPOS>BOND
     1    44    29    1
     2    43    35    2
     3    32    18    1
     4    21     6    1
     5    31    24    2
     6    20    13    2
     7    40    35    1
     8    40    39    2
     9    35    36    1
    10    29    24   ar
    11    29    28   ar
    12    42    39    1
    13    24    25   ar
    14    18    13   ar
    15    18    17   ar
    16    39    38    1
    17    13    14   ar
    18    36    28    2
    19    36    37    1
    20    28    27   ar
    21    25    17    2
    22    25    26   ar
    23    17    16   ar
    24     7     3    1
    25    14     5    2
    26    14    15   ar
    27    12    11    1
    28    11     4    1
    29     5     6   ar
    30     5     4   ar
    31     6     1   ar
    32     4     3   ar
    33     1     2   ar
    34     1     9    1
    35     2     3   ar
    36     2     8    1
    37     9    10    1
    38    38    37    2
    39    38    45    1
    40    37    41    1
    41    27    26   ar
    42    27    33    1
    43    26    30    1
    44    45    46    1
    45    16    15   ar
    46    16    22    1
    47    15    19    1
    48    33    34    1
    49    22    23    1
