@<TRIPOS>MOLECULE
mol_data/noopt/geoms/mol2/6gf6gf.out
 24 25 0 0 0
SMALL
GASTEIGER

@<TRIPOS>ATOM
      1 C          -4.5775   -2.0270    0.0001 C.ar    1  LIG1        0.0709
      2 C          -3.1706   -2.0270    0.0001 C.ar    1  LIG1       -0.0285
      3 C          -2.5039   -0.8004    0.0001 C.ar    1  LIG1       -0.0157
      4 C          -3.2580    0.3743   -0.0001 C.ar    1  LIG1        0.1408
      5 C          -4.6612    0.2715   -0.0003 C.ar    1  LIG1        0.0917
      6 N          -5.3207   -0.9034   -0.0001 N.ar    1  LIG1       -0.3467
      7 H          -1.4054   -0.7607   -0.0009 H       1  LIG1        0.0655
      8 H          -2.5135   -3.1487    0.0004 H       1  LIG1        0.0644
      9 S          -5.2431   -3.1436    0.0002 S.3     1  LIG1       -0.1253
     10 H          -4.4062   -4.1515    0.0002 H       1  LIG1        0.1085
     11 O          -2.6846    1.5410   -0.0003 O.3     1  LIG1       -0.5047
     12 H          -3.3554    2.2278   -0.0003 H       1  LIG1        0.2922
     13 C          -6.8088    1.2233   -0.0003 C.2     1  LIG1        0.1062
     14 C          -5.4065    1.3366   -0.0004 C.2     1  LIG1        0.0355
     15 C          -4.8408    2.6129   -0.0003 C.2     1  LIG1       -0.0073
     16 C          -5.6871    3.7231   -0.0003 C.2     1  LIG1        0.1332
     17 C          -7.0774    3.5076   -0.0004 C.2     1  LIG1        0.0594
     18 N          -7.6401    2.2834   -0.0003 N.am    1  LIG1       -0.2108
     19 H          -3.7491    2.7410   -0.0014 H       1  LIG1        0.0662
     20 H          -7.9061    4.5092   -0.0003 H       1  LIG1        0.0839
     21 S          -7.3823    0.0567   -0.0003 S.2     1  LIG1       -0.0327
     22 H          -6.4670   -0.8805   -0.0003 H       1  LIG1        0.1665
     23 O          -5.2095    4.9322   -0.0004 O.2     1  LIG1       -0.5054
     24 H          -5.9335    5.5627   -0.0004 H       1  LIG1        0.2922
@<TRIPOS>BOND
     1    19    15    1
     2     7     3    1
     3    14     5    2
     4    14    13    1
     5    14    15    1
     6    24    23    1
     7    17    18    2
     8    17    20    1
     9    17    16    1
    10    23    16    1
    11    12    11    1
    12     5     6   ar
    13     5     4   ar
    14    11     4    1
    15    13    21    2
    16    13    18    1
    17    15    16    2
    18    22     6    1
    19     6     1   ar
    20     4     3   ar
    21     1     2   ar
    22     1     9    1
    23     3     2   ar
    24     2     8    1
    25     9    10    1
