@<TRIPOS>MOLECULE
mol_data/noopt/geoms/mol2/6gf6gf6gf-.out
 35 37 0 0 0
SMALL
GASTEIGER

@<TRIPOS>ATOM
      1 C          -4.5775   -2.0270    0.0001 C.ar    1  LIG1        0.0709
      2 C          -3.1706   -2.0270    0.0001 C.ar    1  LIG1       -0.0285
      3 C          -2.5039   -0.8004    0.0001 C.ar    1  LIG1       -0.0157
      4 C          -3.2580    0.3743   -0.0001 C.ar    1  LIG1        0.1408
      5 C          -4.6612    0.2715   -0.0003 C.ar    1  LIG1        0.0918
      6 N          -5.3207   -0.9034   -0.0001 N.ar    1  LIG1       -0.3467
      7 H          -1.4054   -0.7607   -0.0009 H       1  LIG1        0.0655
      8 H          -2.5135   -3.1487    0.0004 H       1  LIG1        0.0644
      9 S          -5.2431   -3.1436    0.0002 S.3     1  LIG1       -0.1253
     10 H          -4.4062   -4.1515    0.0002 H       1  LIG1        0.1085
     11 O          -2.6846    1.5410   -0.0003 O.3     1  LIG1       -0.5047
     12 H          -3.3554    2.2278   -0.0003 H       1  LIG1        0.2922
     13 C          -6.8088    1.2233   -0.0003 C.ar    1  LIG1        0.0942
     14 C          -5.4065    1.3366   -0.0004 C.ar    1  LIG1        0.0360
     15 C          -4.8408    2.6129   -0.0003 C.ar    1  LIG1       -0.0064
     16 C          -5.6871    3.7231   -0.0003 C.ar    1  LIG1        0.1414
     17 C          -7.0774    3.5076   -0.0004 C.ar    1  LIG1        0.0917
     18 N          -7.6401    2.2834   -0.0003 N.ar    1  LIG1       -0.3454
     19 H          -3.7491    2.7410   -0.0014 H       1  LIG1        0.0662
     20 S          -7.3823    0.0567   -0.0003 S.2     1  LIG1       -0.0321
     21 H          -6.4670   -0.8805   -0.0003 H       1  LIG1        0.1665
     22 O          -5.2095    4.9322   -0.0004 O.3     1  LIG1       -0.5047
     23 H          -5.9335    5.5627   -0.0004 H       1  LIG1        0.2922
     24 C          -9.2946    4.2834   -0.0212 C.2     1  LIG1        0.1062
     25 C          -7.9061    4.5092   -0.0003 C.2     1  LIG1        0.0355
     26 C          -7.4452    5.8268    0.0208 C.2     1  LIG1       -0.0073
     27 C          -8.3781    6.8652    0.0200 C.2     1  LIG1        0.1332
     28 C          -9.7464    6.5385   -0.0020 C.2     1  LIG1        0.0594
     29 N         -10.2086    5.2731   -0.0223 N.am    1  LIG1       -0.2108
     30 H          -6.3674    6.0423    0.0365 H       1  LIG1        0.0662
     31 H         -10.6531    7.4702   -0.0035 H       1  LIG1        0.0839
     32 S          -9.7721    3.0745   -0.0412 S.2     1  LIG1       -0.0327
     33 H          -8.7842    2.2142   -0.0479 H       1  LIG1        0.1665
     34 O          -7.9996    8.1088    0.0389 O.2     1  LIG1       -0.5054
     35 H          -8.7721    8.6788    0.0436 H       1  LIG1        0.2922
@<TRIPOS>BOND
     1    33    18    1
     2    32    24    2
     3    29    24    1
     4    29    28    2
     5    24    25    1
     6    31    28    1
     7    28    27    1
     8    19    15    1
     9     7     3    1
    10    14     5    2
    11    14    13   ar
    12    14    15   ar
    13    23    22    1
    14    17    18   ar
    15    17    25    2
    16    17    16   ar
    17    22    16    1
    18    12    11    1
    19     5     6   ar
    20     5     4   ar
    21    11     4    1
    22    13    20    2
    23    13    18   ar
    24    15    16   ar
    25    21     6    1
    26    25    26    1
    27     6     1   ar
    28     4     3   ar
    29     1     2   ar
    30     1     9    1
    31     3     2   ar
    32     2     8    1
    33     9    10    1
    34    27    26    2
    35    27    34    1
    36    26    30    1
    37    34    35    1
