@<TRIPOS>MOLECULE
mol_data/noopt/geoms/mol2/6gh.out
 14 14 0 0 0
SMALL
GASTEIGER

@<TRIPOS>ATOM
      1 C          -4.5775   -2.0270    0.0001 C.ar    1  LIG1        0.0940
      2 C          -3.1706   -2.0270    0.0001 C.ar    1  LIG1       -0.0283
      3 C          -2.5039   -0.8004    0.0001 C.ar    1  LIG1       -0.0371
      4 C          -3.2580    0.3743   -0.0001 C.ar    1  LIG1        0.0430
      5 C          -4.6612    0.2715   -0.0003 C.ar    1  LIG1        0.0494
      6 N          -5.3207   -0.9034   -0.0001 N.ar    1  LIG1       -0.2472
      7 H          -1.4054   -0.7607   -0.0009 H       1  LIG1        0.0637
      8 H          -2.5135   -3.1487    0.0004 H       1  LIG1        0.0644
      9 H          -5.4065    1.3366   -0.0004 H       1  LIG1        0.0849
     10 S          -5.2431   -3.1436    0.0002 S.3     1  LIG1       -0.1234
     11 H          -4.4062   -4.1515    0.0002 H       1  LIG1        0.1086
     12 N          -2.6846    1.5410   -0.0003 N.pl3   1  LIG1       -0.3568
     13 H          -1.8048    1.4799   -0.4718 H       1  LIG1        0.1424
     14 H          -3.2703    2.2002   -0.4718 H       1  LIG1        0.1424
@<TRIPOS>BOND
     1    14    12    1
     2    13    12    1
     3     7     3    1
     4     9     5    1
     5     5     4   ar
     6     5     6   ar
     7    12     4    1
     8     4     3   ar
     9     6     1   ar
    10     1     2   ar
    11     1    10    1
    12     2     3   ar
    13     2     8    1
    14    10    11    1
