@<TRIPOS>MOLECULE
mol_data/noopt/geoms/mol2/6gh6gh-6gh-6gh.out
 50 53 0 0 0
SMALL
GASTEIGER

@<TRIPOS>ATOM
      1 C          -4.5775   -2.0270    0.0001 C.ar    1  LIG1        0.0708
      2 C          -3.1706   -2.0270    0.0001 C.ar    1  LIG1       -0.0302
      3 C          -2.5039   -0.8004    0.0001 C.ar    1  LIG1       -0.0366
      4 C          -3.2580    0.3743   -0.0001 C.ar    1  LIG1        0.0490
      5 C          -4.6612    0.2715   -0.0003 C.ar    1  LIG1        0.0707
      6 N          -5.3207   -0.9034   -0.0001 N.ar    1  LIG1       -0.3481
      7 H          -1.4054   -0.7607   -0.0009 H       1  LIG1        0.0637
      8 H          -2.5135   -3.1487    0.0004 H       1  LIG1        0.0644
      9 S          -5.2431   -3.1436    0.0002 S.3     1  LIG1       -0.1253
     10 H          -4.4062   -4.1515    0.0002 H       1  LIG1        0.1085
     11 N          -2.6846    1.5410   -0.0003 N.pl3   1  LIG1       -0.3564
     12 H          -1.8048    1.4799   -0.4718 H       1  LIG1        0.1424
     13 H          -3.2703    2.2002   -0.4718 H       1  LIG1        0.1424
     14 C          -6.8087    1.2234   -0.0215 C.ar    1  LIG1        0.0940
     15 C          -5.4065    1.3366   -0.0004 C.ar    1  LIG1        0.0325
     16 C          -4.8409    2.6128    0.0206 C.ar    1  LIG1       -0.0273
     17 C          -5.6872    3.7230    0.0196 C.ar    1  LIG1        0.0496
     18 C          -7.0774    3.5076   -0.0025 C.ar    1  LIG1        0.0708
     19 N          -7.6400    2.2835   -0.0227 N.ar    1  LIG1       -0.3468
     20 H          -3.7493    2.7408    0.0363 H       1  LIG1        0.0644
     21 S          -7.3820    0.0569   -0.0413 S.2     1  LIG1       -0.0321
     22 H          -6.4666   -0.8802   -0.0480 H       1  LIG1        0.1664
     23 N          -5.2098    4.9320    0.0384 N.pl3   1  LIG1       -0.3563
     24 H          -4.3254    4.9484   -0.4281 H       1  LIG1        0.1424
     25 H          -5.8442    5.5482   -0.4282 H       1  LIG1        0.1424
     26 C          -9.2946    4.2834   -0.0262 C.ar    1  LIG1        0.0940
     27 C          -7.9061    4.5092   -0.0043 C.ar    1  LIG1        0.0325
     28 C          -7.4452    5.8269    0.0158 C.ar    1  LIG1       -0.0273
     29 C          -8.3781    6.8652    0.0131 C.ar    1  LIG1        0.0496
     30 C          -9.7464    6.5386   -0.0098 C.ar    1  LIG1        0.0706
     31 N         -10.2085    5.2731   -0.0292 N.ar    1  LIG1       -0.3468
     32 H          -6.3674    6.0424    0.0322 H       1  LIG1        0.0644
     33 S          -9.7721    3.0745   -0.0453 S.2     1  LIG1       -0.0321
     34 H          -8.7841    2.2142   -0.0517 H       1  LIG1        0.1665
     35 N          -7.9996    8.1088    0.0310 N.pl3   1  LIG1       -0.3563
     36 H          -7.1195    8.1961   -0.4358 H       1  LIG1        0.1424
     37 H          -8.6817    8.6716   -0.4358 H       1  LIG1        0.1424
     38 C         -12.0190    7.1332   -0.0149 C.2     1  LIG1        0.1060
     39 C         -10.6531    7.4702   -0.0132 C.2     1  LIG1        0.0320
     40 C         -10.2996    8.8208   -0.0149 C.2     1  LIG1       -0.0282
     41 C         -11.3131    9.7807   -0.0184 C.2     1  LIG1        0.0412
     42 C         -12.6508    9.3447   -0.0200 C.2     1  LIG1        0.0386
     43 N         -13.0097    8.0461   -0.0182 N.am    1  LIG1       -0.2126
     44 H          -9.2426    9.1225   -0.0147 H       1  LIG1        0.0644
     45 H         -13.6296   10.2003   -0.0231 H       1  LIG1        0.0821
     46 S         -12.3977    5.8896   -0.0133 S.2     1  LIG1       -0.0327
     47 H         -11.3438    5.1116   -0.0128 H       1  LIG1        0.1665
     48 N         -11.0359   11.0508   -0.0202 N.pl3   1  LIG1       -0.3569
     49 H         -10.1672   11.2016   -0.4921 H       1  LIG1        0.1424
     50 H         -11.7626   11.5499   -0.4922 H       1  LIG1        0.1424
@<TRIPOS>BOND
     1    50    48    1
     2    49    48    1
     3    13    11    1
     4    12    11    1
     5    37    35    1
     6    36    35    1
     7    25    23    1
     8    24    23    1
     9    34    19    1
    10    22     6    1
    11    33    26    2
    12    21    14    2
    13    31    26   ar
    14    31    47    1
    15    31    30   ar
    16    26    27   ar
    17    45    42    1
    18    19    14   ar
    19    19    18   ar
    20    14    15   ar
    21    48    41    1
    22    42    41    1
    23    42    43    2
    24    41    40    2
    25    43    38    1
    26    40    44    1
    27    40    39    1
    28    38    46    2
    29    38    39    1
    30    39    30    2
    31    30    29   ar
    32    27    18    2
    33    27    28   ar
    34    18    17   ar
    35     7     3    1
    36    15     5    2
    37    15    16   ar
    38     5     6   ar
    39     5     4   ar
    40    11     4    1
    41     6     1   ar
    42     4     3   ar
    43     2     3   ar
    44     2     1   ar
    45     2     8    1
    46     1     9    1
    47     9    10    1
    48    29    28   ar
    49    29    35    1
    50    28    32    1
    51    17    16   ar
    52    17    23    1
    53    16    20    1
