@<TRIPOS>MOLECULE
mol_data/noopt/geoms/mol2/6gh6gh-6gh.out
 38 40 0 0 0
SMALL
GASTEIGER

@<TRIPOS>ATOM
      1 C          -4.5775   -2.0270    0.0001 C.ar    1  LIG1        0.0708
      2 C          -3.1706   -2.0270    0.0001 C.ar    1  LIG1       -0.0302
      3 C          -2.5039   -0.8004    0.0001 C.ar    1  LIG1       -0.0366
      4 C          -3.2580    0.3743   -0.0001 C.ar    1  LIG1        0.0490
      5 C          -4.6612    0.2715   -0.0003 C.ar    1  LIG1        0.0707
      6 N          -5.3207   -0.9034   -0.0001 N.ar    1  LIG1       -0.3481
      7 H          -1.4054   -0.7607   -0.0009 H       1  LIG1        0.0637
      8 H          -2.5135   -3.1487    0.0004 H       1  LIG1        0.0644
      9 S          -5.2431   -3.1436    0.0002 S.3     1  LIG1       -0.1253
     10 H          -4.4062   -4.1515    0.0002 H       1  LIG1        0.1085
     11 N          -2.6846    1.5410   -0.0003 N.pl3   1  LIG1       -0.3564
     12 H          -1.8048    1.4799   -0.4718 H       1  LIG1        0.1424
     13 H          -3.2703    2.2002   -0.4718 H       1  LIG1        0.1424
     14 C          -6.8087    1.2234   -0.0215 C.ar    1  LIG1        0.0940
     15 C          -5.4065    1.3366   -0.0004 C.ar    1  LIG1        0.0325
     16 C          -4.8409    2.6128    0.0206 C.ar    1  LIG1       -0.0273
     17 C          -5.6872    3.7230    0.0196 C.ar    1  LIG1        0.0496
     18 C          -7.0774    3.5076   -0.0025 C.ar    1  LIG1        0.0706
     19 N          -7.6400    2.2835   -0.0227 N.ar    1  LIG1       -0.3468
     20 H          -3.7493    2.7408    0.0363 H       1  LIG1        0.0644
     21 S          -7.3820    0.0569   -0.0413 S.2     1  LIG1       -0.0321
     22 H          -6.4666   -0.8802   -0.0480 H       1  LIG1        0.1664
     23 N          -5.2098    4.9320    0.0384 N.pl3   1  LIG1       -0.3563
     24 H          -4.3254    4.9484   -0.4281 H       1  LIG1        0.1424
     25 H          -5.8442    5.5482   -0.4282 H       1  LIG1        0.1424
     26 C          -9.2947    4.2833   -0.0051 C.2     1  LIG1        0.1060
     27 C          -7.9061    4.5092   -0.0043 C.2     1  LIG1        0.0320
     28 C          -7.4450    5.8270   -0.0051 C.2     1  LIG1       -0.0282
     29 C          -8.3779    6.8653   -0.0068 C.2     1  LIG1        0.0412
     30 C          -9.7464    6.5386   -0.0077 C.2     1  LIG1        0.0386
     31 N         -10.2087    5.2730   -0.0067 N.am    1  LIG1       -0.2126
     32 H          -6.3671    6.0425   -0.0055 H       1  LIG1        0.0644
     33 H         -10.6531    7.4702   -0.0092 H       1  LIG1        0.0821
     34 S          -9.7724    3.0743   -0.0043 S.2     1  LIG1       -0.0327
     35 H          -8.7845    2.2139   -0.0040 H       1  LIG1        0.1665
     36 N          -7.9993    8.1090   -0.0078 N.pl3   1  LIG1       -0.3569
     37 H          -7.1212    8.1897   -0.4794 H       1  LIG1        0.1424
     38 H          -8.6834    8.6653   -0.4795 H       1  LIG1        0.1424
@<TRIPOS>BOND
     1    38    36    1
     2    37    36    1
     3    13    11    1
     4    12    11    1
     5    25    23    1
     6    24    23    1
     7    22     6    1
     8    21    14    2
     9    19    14   ar
    10    19    35    1
    11    19    18   ar
    12    14    15   ar
    13    33    30    1
    14    36    29    1
    15    30    29    1
    16    30    31    2
    17    29    28    2
    18    31    26    1
    19    32    28    1
    20    28    27    1
    21    26    27    1
    22    26    34    2
    23    27    18    2
    24    18    17   ar
    25     7     3    1
    26    15     5    2
    27    15    16   ar
    28    11     4    1
    29     5     6   ar
    30     5     4   ar
    31     6     1   ar
    32     4     3   ar
    33     1     2   ar
    34     1     9    1
    35     3     2   ar
    36     2     8    1
    37     9    10    1
    38    17    16   ar
    39    17    23    1
    40    16    20    1
