@<TRIPOS>MOLECULE
mol_data/noopt/geoms/mol2/6gh6gh6gh-6gh-.out
 50 53 0 0 0
SMALL
GASTEIGER

@<TRIPOS>ATOM
      1 C          -4.5775   -2.0270    0.0001 C.ar    1  LIG1        0.0708
      2 C          -3.1706   -2.0270    0.0001 C.ar    1  LIG1       -0.0302
      3 C          -2.5039   -0.8004    0.0001 C.ar    1  LIG1       -0.0366
      4 C          -3.2580    0.3743   -0.0001 C.ar    1  LIG1        0.0490
      5 C          -4.6612    0.2715   -0.0003 C.ar    1  LIG1        0.0707
      6 N          -5.3207   -0.9034   -0.0001 N.ar    1  LIG1       -0.3481
      7 H          -1.4054   -0.7607   -0.0009 H       1  LIG1        0.0637
      8 H          -2.5135   -3.1487    0.0004 H       1  LIG1        0.0644
      9 S          -5.2431   -3.1436    0.0002 S.3     1  LIG1       -0.1253
     10 H          -4.4062   -4.1515    0.0002 H       1  LIG1        0.1085
     11 N          -2.6846    1.5410   -0.0003 N.pl3   1  LIG1       -0.3564
     12 H          -1.8048    1.4799   -0.4718 H       1  LIG1        0.1424
     13 H          -3.2703    2.2002   -0.4718 H       1  LIG1        0.1424
     14 C          -6.8088    1.2233   -0.0003 C.ar    1  LIG1        0.0940
     15 C          -5.4065    1.3366   -0.0004 C.ar    1  LIG1        0.0325
     16 C          -4.8408    2.6129   -0.0003 C.ar    1  LIG1       -0.0273
     17 C          -5.6871    3.7231   -0.0003 C.ar    1  LIG1        0.0496
     18 C          -7.0774    3.5076   -0.0004 C.ar    1  LIG1        0.0708
     19 N          -7.6401    2.2834   -0.0003 N.ar    1  LIG1       -0.3468
     20 H          -3.7491    2.7410   -0.0014 H       1  LIG1        0.0644
     21 S          -7.3823    0.0567   -0.0003 S.2     1  LIG1       -0.0321
     22 H          -6.4670   -0.8805   -0.0003 H       1  LIG1        0.1664
     23 N          -5.2095    4.9322   -0.0004 N.pl3   1  LIG1       -0.3563
     24 H          -4.3276    4.9422   -0.4718 H       1  LIG1        0.1424
     25 H          -5.8464    5.5421   -0.4718 H       1  LIG1        0.1424
     26 C          -9.2946    4.2834   -0.0212 C.ar    1  LIG1        0.0940
     27 C          -7.9061    4.5092   -0.0003 C.ar    1  LIG1        0.0325
     28 C          -7.4452    5.8268    0.0208 C.ar    1  LIG1       -0.0273
     29 C          -8.3781    6.8652    0.0200 C.ar    1  LIG1        0.0496
     30 C          -9.7464    6.5385   -0.0020 C.ar    1  LIG1        0.0706
     31 N         -10.2086    5.2731   -0.0223 N.ar    1  LIG1       -0.3468
     32 H          -6.3674    6.0423    0.0365 H       1  LIG1        0.0644
     33 S          -9.7721    3.0745   -0.0412 S.2     1  LIG1       -0.0321
     34 H          -8.7842    2.2142   -0.0479 H       1  LIG1        0.1665
     35 N          -7.9996    8.1088    0.0389 N.pl3   1  LIG1       -0.3563
     36 H          -7.1194    8.1964   -0.4276 H       1  LIG1        0.1424
     37 H          -8.6816    8.6719   -0.4276 H       1  LIG1        0.1424
     38 C         -12.0189    7.1333   -0.0254 C.2     1  LIG1        0.1060
     39 C         -10.6531    7.4702   -0.0035 C.2     1  LIG1        0.0320
     40 C         -10.2998    8.8207    0.0166 C.2     1  LIG1       -0.0282
     41 C         -11.3133    9.7805    0.0141 C.2     1  LIG1        0.0412
     42 C         -12.6509    9.3447   -0.0087 C.2     1  LIG1        0.0386
     43 N         -13.0096    8.0461   -0.0281 N.am    1  LIG1       -0.2126
     44 H          -9.2429    9.1223    0.0330 H       1  LIG1        0.0644
     45 H         -13.6296   10.2002   -0.0118 H       1  LIG1        0.0821
     46 S         -12.3975    5.8898   -0.0445 S.2     1  LIG1       -0.0327
     47 H         -11.3434    5.1119   -0.0510 H       1  LIG1        0.1665
     48 N         -11.0363   11.0505    0.0321 N.pl3   1  LIG1       -0.3569
     49 H         -10.1661   11.2085   -0.4346 H       1  LIG1        0.1424
     50 H         -11.7615   11.5566   -0.4346 H       1  LIG1        0.1424
@<TRIPOS>BOND
     1    25    23    1
     2    24    23    1
     3    13    11    1
     4    12    11    1
     5    50    48    1
     6    49    48    1
     7    37    35    1
     8    36    35    1
     9    47    31    1
    10    34    19    1
    11    46    38    2
    12    33    26    2
    13    43    38    1
    14    43    42    2
    15    38    39    1
    16    31    26   ar
    17    31    30   ar
    18    26    27   ar
    19    45    42    1
    20    42    41    1
    21    39    30    2
    22    39    40    1
    23    30    29   ar
    24    20    16    1
    25     7     3    1
    26    15     5    2
    27    15    14   ar
    28    15    16   ar
    29    18    19   ar
    30    18    27    2
    31    18    17   ar
    32    23    17    1
    33    11     4    1
    34     5     4   ar
    35     5     6   ar
    36    14    21    2
    37    14    19   ar
    38    16    17   ar
    39    22     6    1
    40    27    28   ar
    41     4     3   ar
    42     6     1   ar
    43     3     2   ar
    44     2     1   ar
    45     2     8    1
    46     1     9    1
    47     9    10    1
    48    41    40    2
    49    41    48    1
    50    40    44    1
    51    29    28   ar
    52    29    35    1
    53    28    32    1
