@<TRIPOS>MOLECULE
mol_data/noopt/geoms/mol2/6gh6gh6gh-.out
 38 40 0 0 0
SMALL
GASTEIGER

@<TRIPOS>ATOM
      1 C          -4.5775   -2.0270    0.0001 C.ar    1  LIG1        0.0708
      2 C          -3.1706   -2.0270    0.0001 C.ar    1  LIG1       -0.0302
      3 C          -2.5039   -0.8004    0.0001 C.ar    1  LIG1       -0.0366
      4 C          -3.2580    0.3743   -0.0001 C.ar    1  LIG1        0.0490
      5 C          -4.6612    0.2715   -0.0003 C.ar    1  LIG1        0.0707
      6 N          -5.3207   -0.9034   -0.0001 N.ar    1  LIG1       -0.3481
      7 H          -1.4054   -0.7607   -0.0009 H       1  LIG1        0.0637
      8 H          -2.5135   -3.1487    0.0004 H       1  LIG1        0.0644
      9 S          -5.2431   -3.1436    0.0002 S.3     1  LIG1       -0.1253
     10 H          -4.4062   -4.1515    0.0002 H       1  LIG1        0.1085
     11 N          -2.6846    1.5410   -0.0003 N.pl3   1  LIG1       -0.3564
     12 H          -1.8048    1.4799   -0.4718 H       1  LIG1        0.1424
     13 H          -3.2703    2.2002   -0.4718 H       1  LIG1        0.1424
     14 C          -6.8088    1.2233   -0.0003 C.ar    1  LIG1        0.0940
     15 C          -5.4065    1.3366   -0.0004 C.ar    1  LIG1        0.0325
     16 C          -4.8408    2.6129   -0.0003 C.ar    1  LIG1       -0.0273
     17 C          -5.6871    3.7231   -0.0003 C.ar    1  LIG1        0.0496
     18 C          -7.0774    3.5076   -0.0004 C.ar    1  LIG1        0.0706
     19 N          -7.6401    2.2834   -0.0003 N.ar    1  LIG1       -0.3468
     20 H          -3.7491    2.7410   -0.0014 H       1  LIG1        0.0644
     21 S          -7.3823    0.0567   -0.0003 S.2     1  LIG1       -0.0321
     22 H          -6.4670   -0.8805   -0.0003 H       1  LIG1        0.1664
     23 N          -5.2095    4.9322   -0.0004 N.pl3   1  LIG1       -0.3563
     24 H          -4.3276    4.9422   -0.4718 H       1  LIG1        0.1424
     25 H          -5.8464    5.5421   -0.4718 H       1  LIG1        0.1424
     26 C          -9.2946    4.2834   -0.0212 C.2     1  LIG1        0.1060
     27 C          -7.9061    4.5092   -0.0003 C.2     1  LIG1        0.0320
     28 C          -7.4452    5.8268    0.0208 C.2     1  LIG1       -0.0282
     29 C          -8.3781    6.8652    0.0200 C.2     1  LIG1        0.0412
     30 C          -9.7464    6.5385   -0.0020 C.2     1  LIG1        0.0386
     31 N         -10.2086    5.2731   -0.0223 N.am    1  LIG1       -0.2126
     32 H          -6.3674    6.0423    0.0365 H       1  LIG1        0.0644
     33 H         -10.6531    7.4702   -0.0035 H       1  LIG1        0.0821
     34 S          -9.7721    3.0745   -0.0412 S.2     1  LIG1       -0.0327
     35 H          -8.7842    2.2142   -0.0479 H       1  LIG1        0.1665
     36 N          -7.9996    8.1088    0.0389 N.pl3   1  LIG1       -0.3569
     37 H          -7.1194    8.1964   -0.4276 H       1  LIG1        0.1424
     38 H          -8.6816    8.6719   -0.4276 H       1  LIG1        0.1424
@<TRIPOS>BOND
     1    25    23    1
     2    24    23    1
     3    13    11    1
     4    12    11    1
     5    38    36    1
     6    37    36    1
     7    35    19    1
     8    34    26    2
     9    31    26    1
    10    31    30    2
    11    26    27    1
    12    33    30    1
    13    30    29    1
    14    20    16    1
    15     7     3    1
    16    15     5    2
    17    15    14   ar
    18    15    16   ar
    19    18    19   ar
    20    18    27    2
    21    18    17   ar
    22    23    17    1
    23     5     4   ar
    24     5     6   ar
    25    11     4    1
    26    14    21    2
    27    14    19   ar
    28    16    17   ar
    29    22     6    1
    30    27    28    1
    31     4     3   ar
    32     6     1   ar
    33     2     3   ar
    34     2     1   ar
    35     2     8    1
    36     1     9    1
    37     9    10    1
    38    29    28    2
    39    29    36    1
    40    28    32    1
