@<TRIPOS>MOLECULE
mol_data/noopt/geoms/mol2/6gh6gh6gh6gh.out
 50 53 0 0 0
SMALL
GASTEIGER

@<TRIPOS>ATOM
      1 C          -4.5775   -2.0270    0.0001 C.ar    1  LIG1        0.0708
      2 C          -3.1706   -2.0270    0.0001 C.ar    1  LIG1       -0.0302
      3 C          -2.5039   -0.8004    0.0001 C.ar    1  LIG1       -0.0366
      4 C          -3.2580    0.3743   -0.0001 C.ar    1  LIG1        0.0490
      5 C          -4.6612    0.2715   -0.0003 C.ar    1  LIG1        0.0707
      6 N          -5.3207   -0.9034   -0.0001 N.ar    1  LIG1       -0.3481
      7 H          -1.4054   -0.7607   -0.0009 H       1  LIG1        0.0637
      8 H          -2.5135   -3.1487    0.0004 H       1  LIG1        0.0644
      9 S          -5.2431   -3.1436    0.0002 S.3     1  LIG1       -0.1253
     10 H          -4.4062   -4.1515    0.0002 H       1  LIG1        0.1085
     11 N          -2.6846    1.5410   -0.0003 N.pl3   1  LIG1       -0.3564
     12 H          -1.8048    1.4799   -0.4718 H       1  LIG1        0.1424
     13 H          -3.2703    2.2002   -0.4718 H       1  LIG1        0.1424
     14 C          -6.8088    1.2233   -0.0003 C.ar    1  LIG1        0.0940
     15 C          -5.4065    1.3366   -0.0004 C.ar    1  LIG1        0.0325
     16 C          -4.8408    2.6129   -0.0003 C.ar    1  LIG1       -0.0273
     17 C          -5.6871    3.7231   -0.0003 C.ar    1  LIG1        0.0496
     18 C          -7.0774    3.5076   -0.0004 C.ar    1  LIG1        0.0708
     19 N          -7.6401    2.2834   -0.0003 N.ar    1  LIG1       -0.3468
     20 H          -3.7491    2.7410   -0.0014 H       1  LIG1        0.0644
     21 S          -7.3823    0.0567   -0.0003 S.2     1  LIG1       -0.0321
     22 H          -6.4670   -0.8805   -0.0003 H       1  LIG1        0.1664
     23 N          -5.2095    4.9322   -0.0004 N.pl3   1  LIG1       -0.3563
     24 H          -4.3276    4.9422   -0.4718 H       1  LIG1        0.1424
     25 H          -5.8464    5.5421   -0.4718 H       1  LIG1        0.1424
     26 C          -9.2948    4.2833   -0.0001 C.ar    1  LIG1        0.0940
     27 C          -7.9061    4.5092   -0.0003 C.ar    1  LIG1        0.0325
     28 C          -7.4450    5.8270   -0.0001 C.ar    1  LIG1       -0.0273
     29 C          -8.3780    6.8653    0.0002 C.ar    1  LIG1        0.0496
     30 C          -9.7465    6.5385    0.0002 C.ar    1  LIG1        0.0706
     31 N         -10.2087    5.2730    0.0002 N.ar    1  LIG1       -0.3468
     32 H          -6.3672    6.0425   -0.0012 H       1  LIG1        0.0644
     33 S          -9.7724    3.0743   -0.0002 S.2     1  LIG1       -0.0321
     34 H          -8.7845    2.2139   -0.0002 H       1  LIG1        0.1665
     35 N          -7.9993    8.1090    0.0002 N.pl3   1  LIG1       -0.3563
     36 H          -7.1212    8.1900   -0.4712 H       1  LIG1        0.1424
     37 H          -8.6833    8.6657   -0.4712 H       1  LIG1        0.1424
     38 C         -12.0191    7.1331    0.0008 C.2     1  LIG1        0.1060
     39 C         -10.6531    7.4702    0.0005 C.2     1  LIG1        0.0320
     40 C         -10.2997    8.8208    0.0008 C.2     1  LIG1       -0.0282
     41 C         -11.3132    9.7806    0.0012 C.2     1  LIG1        0.0412
     42 C         -12.6510    9.3446    0.0013 C.2     1  LIG1        0.0386
     43 N         -13.0098    8.0460    0.0012 N.am    1  LIG1       -0.2126
     44 H          -9.2427    9.1225   -0.0004 H       1  LIG1        0.0644
     45 H         -13.6297   10.2002    0.0018 H       1  LIG1        0.0821
     46 S         -12.3978    5.8895    0.0006 S.2     1  LIG1       -0.0327
     47 H         -11.3438    5.1115    0.0005 H       1  LIG1        0.1665
     48 N         -11.0360   11.0507    0.0014 N.pl3   1  LIG1       -0.3569
     49 H         -10.1672   11.2023   -0.4700 H       1  LIG1        0.1424
     50 H         -11.7626   11.5505   -0.4700 H       1  LIG1        0.1424
@<TRIPOS>BOND
     1    25    23    1
     2    24    23    1
     3    13    11    1
     4    12    11    1
     5    37    35    1
     6    36    35    1
     7    50    48    1
     8    49    48    1
     9    20    16    1
    10    32    28    1
    11     7     3    1
    12    44    40    1
    13    15     5    2
    14    15    14   ar
    15    15    16   ar
    16    18    19   ar
    17    18    27    2
    18    18    17   ar
    19    23    17    1
    20    11     4    1
    21     5     6   ar
    22     5     4   ar
    23    14    21    2
    24    14    19   ar
    25    16    17   ar
    26    22     6    1
    27    19    34    1
    28    27    26   ar
    29    27    28   ar
    30    33    26    2
    31     6     1   ar
    32     4     3   ar
    33    26    31   ar
    34    28    29   ar
    35     2     1   ar
    36     2     3   ar
    37     2     8    1
    38     1     9    1
    39    31    30   ar
    40    31    47    1
    41    30    29   ar
    42    30    39    2
    43    29    35    1
    44     9    10    1
    45    39    38    1
    46    39    40    1
    47    46    38    2
    48    38    43    1
    49    40    41    2
    50    43    42    2
    51    41    42    1
    52    41    48    1
    53    42    45    1
