@<TRIPOS>MOLECULE
mol_data/noopt/geoms/mol2/6gh6gh-.out
 26 27 0 0 0
SMALL
GASTEIGER

@<TRIPOS>ATOM
      1 C          -4.5775   -2.0270    0.0001 C.ar    1  LIG1        0.0708
      2 C          -3.1706   -2.0270    0.0001 C.ar    1  LIG1       -0.0302
      3 C          -2.5039   -0.8004    0.0001 C.ar    1  LIG1       -0.0366
      4 C          -3.2580    0.3743   -0.0001 C.ar    1  LIG1        0.0490
      5 C          -4.6612    0.2715   -0.0003 C.ar    1  LIG1        0.0706
      6 N          -5.3207   -0.9034   -0.0001 N.ar    1  LIG1       -0.3481
      7 H          -1.4054   -0.7607   -0.0009 H       1  LIG1        0.0637
      8 H          -2.5135   -3.1487    0.0004 H       1  LIG1        0.0644
      9 S          -5.2431   -3.1436    0.0002 S.3     1  LIG1       -0.1253
     10 H          -4.4062   -4.1515    0.0002 H       1  LIG1        0.1085
     11 N          -2.6846    1.5410   -0.0003 N.pl3   1  LIG1       -0.3564
     12 H          -1.8048    1.4799   -0.4718 H       1  LIG1        0.1424
     13 H          -3.2703    2.2002   -0.4718 H       1  LIG1        0.1424
     14 C          -6.8087    1.2234   -0.0215 C.2     1  LIG1        0.1060
     15 C          -5.4065    1.3366   -0.0004 C.2     1  LIG1        0.0320
     16 C          -4.8409    2.6128    0.0206 C.2     1  LIG1       -0.0282
     17 C          -5.6872    3.7230    0.0196 C.2     1  LIG1        0.0412
     18 C          -7.0774    3.5076   -0.0025 C.2     1  LIG1        0.0386
     19 N          -7.6400    2.2835   -0.0227 N.am    1  LIG1       -0.2126
     20 H          -3.7493    2.7408    0.0363 H       1  LIG1        0.0644
     21 H          -7.9061    4.5092   -0.0043 H       1  LIG1        0.0821
     22 S          -7.3820    0.0569   -0.0413 S.2     1  LIG1       -0.0327
     23 H          -6.4666   -0.8802   -0.0480 H       1  LIG1        0.1664
     24 N          -5.2098    4.9320    0.0384 N.pl3   1  LIG1       -0.3569
     25 H          -4.3254    4.9484   -0.4281 H       1  LIG1        0.1424
     26 H          -5.8442    5.5482   -0.4282 H       1  LIG1        0.1424
@<TRIPOS>BOND
     1    13    11    1
     2    12    11    1
     3    26    24    1
     4    25    24    1
     5    23     6    1
     6    22    14    2
     7    19    14    1
     8    19    18    2
     9    14    15    1
    10    21    18    1
    11    18    17    1
    12     7     3    1
    13    15     5    2
    14    15    16    1
    15    11     4    1
    16     5     4   ar
    17     5     6   ar
    18     4     3   ar
    19     6     1   ar
    20     2     3   ar
    21     2     1   ar
    22     2     8    1
    23     1     9    1
    24     9    10    1
    25    17    16    2
    26    17    24    1
    27    16    20    1
