@<TRIPOS>MOLECULE
mol_data/noopt/geoms/mol2/6gi.out
 15 15 0 0 0
SMALL
GASTEIGER

@<TRIPOS>ATOM
      1 C          -4.5775   -2.0270    0.0001 C.ar    1  LIG1        0.0939
      2 C          -3.1706   -2.0270    0.0001 C.ar    1  LIG1       -0.0298
      3 C          -2.5039   -0.8004    0.0001 C.ar    1  LIG1       -0.0549
      4 C          -3.2580    0.3743   -0.0001 C.ar    1  LIG1       -0.0323
      5 C          -4.6612    0.2715   -0.0003 C.ar    1  LIG1        0.0317
      6 N          -5.3207   -0.9034   -0.0001 N.ar    1  LIG1       -0.2487
      7 H          -1.4054   -0.7607   -0.0009 H       1  LIG1        0.0621
      8 H          -2.5135   -3.1487    0.0004 H       1  LIG1        0.0644
      9 H          -5.4065    1.3366   -0.0004 H       1  LIG1        0.0832
     10 S          -5.2431   -3.1436    0.0002 S.3     1  LIG1       -0.1234
     11 H          -4.4062   -4.1515    0.0002 H       1  LIG1        0.1086
     12 C          -2.6845    1.5413   -0.0003 C.3     1  LIG1       -0.0383
     13 H          -3.3112    2.2468    0.5041 H       1  LIG1        0.0278
     14 H          -2.5273    1.8613   -1.0092 H       1  LIG1        0.0278
     15 H          -1.7430    1.4761    0.5040 H       1  LIG1        0.0278
@<TRIPOS>BOND
     1    14    12    1
     2     7     3    1
     3     9     5    1
     4     5     4   ar
     5     5     6   ar
     6    12     4    1
     7    12    15    1
     8    12    13    1
     9     4     3   ar
    10     6     1   ar
    11     1     2   ar
    12     1    10    1
    13     2     3   ar
    14     2     8    1
    15    10    11    1
