@<TRIPOS>MOLECULE
mol_data/noopt/geoms/mol2/6gi6gi6gi-6gi.out
 54 57 0 0 0
SMALL
GASTEIGER

@<TRIPOS>ATOM
      1 C          -4.5775   -2.0270    0.0001 C.ar    1  LIG1        0.0707
      2 C          -3.1706   -2.0270    0.0001 C.ar    1  LIG1       -0.0317
      3 C          -2.5039   -0.8004    0.0001 C.ar    1  LIG1       -0.0544
      4 C          -3.2580    0.3743   -0.0001 C.ar    1  LIG1       -0.0264
      5 C          -4.6612    0.2715   -0.0003 C.ar    1  LIG1        0.0527
      6 N          -5.3207   -0.9034   -0.0001 N.ar    1  LIG1       -0.3493
      7 H          -1.4054   -0.7607   -0.0009 H       1  LIG1        0.0622
      8 H          -2.5135   -3.1487    0.0004 H       1  LIG1        0.0643
      9 S          -5.2431   -3.1436    0.0002 S.3     1  LIG1       -0.1253
     10 H          -4.4062   -4.1515    0.0002 H       1  LIG1        0.1085
     11 C          -2.6845    1.5413   -0.0003 C.3     1  LIG1       -0.0377
     12 H          -3.3112    2.2468    0.5041 H       1  LIG1        0.0278
     13 H          -2.5273    1.8613   -1.0092 H       1  LIG1        0.0278
     14 H          -1.7430    1.4761    0.5040 H       1  LIG1        0.0278
     15 C          -6.8088    1.2233   -0.0003 C.ar    1  LIG1        0.0939
     16 C          -5.4065    1.3366   -0.0004 C.ar    1  LIG1        0.0295
     17 C          -4.8408    2.6129   -0.0003 C.ar    1  LIG1       -0.0452
     18 C          -5.6871    3.7231   -0.0003 C.ar    1  LIG1       -0.0258
     19 C          -7.0774    3.5076   -0.0004 C.ar    1  LIG1        0.0527
     20 N          -7.6401    2.2834   -0.0003 N.ar    1  LIG1       -0.3480
     21 H          -3.7491    2.7410   -0.0014 H       1  LIG1        0.0628
     22 S          -7.3823    0.0567   -0.0003 S.2     1  LIG1       -0.0321
     23 H          -6.4670   -0.8805   -0.0003 H       1  LIG1        0.1664
     24 C          -5.2094    4.9325   -0.0004 C.3     1  LIG1       -0.0377
     25 H          -5.8909    5.5852    0.5040 H       1  LIG1        0.0278
     26 H          -5.0784    5.2642   -1.0092 H       1  LIG1        0.0278
     27 H          -4.2658    4.9433    0.5040 H       1  LIG1        0.0278
     28 C          -9.2946    4.2834   -0.0212 C.ar    1  LIG1        0.0939
     29 C          -7.9061    4.5092   -0.0003 C.ar    1  LIG1        0.0295
     30 C          -7.4452    5.8268    0.0208 C.ar    1  LIG1       -0.0452
     31 C          -8.3781    6.8652    0.0200 C.ar    1  LIG1       -0.0258
     32 C          -9.7464    6.5385   -0.0020 C.ar    1  LIG1        0.0526
     33 N         -10.2086    5.2731   -0.0223 N.ar    1  LIG1       -0.3480
     34 H          -6.3674    6.0423    0.0365 H       1  LIG1        0.0628
     35 S          -9.7721    3.0745   -0.0412 S.2     1  LIG1       -0.0321
     36 H          -8.7842    2.2142   -0.0479 H       1  LIG1        0.1664
     37 C          -7.9995    8.1090    0.0390 C.3     1  LIG1       -0.0377
     38 H          -8.7336    8.6976    0.5485 H       1  LIG1        0.0278
     39 H          -7.8915    8.4643   -0.9646 H       1  LIG1        0.0278
     40 H          -7.0620    8.1888    0.5485 H       1  LIG1        0.0278
     41 C         -12.0191    7.1332   -0.0042 C.2     1  LIG1        0.1058
     42 C         -10.6531    7.4702   -0.0035 C.2     1  LIG1        0.0290
     43 C         -10.2997    8.8208   -0.0042 C.2     1  LIG1       -0.0461
     44 C         -11.3132    9.7806   -0.0057 C.2     1  LIG1       -0.0340
     45 C         -12.6509    9.3447   -0.0065 C.2     1  LIG1        0.0209
     46 N         -13.0098    8.0460   -0.0057 N.am    1  LIG1       -0.2141
     47 H          -9.2427    9.1225   -0.0047 H       1  LIG1        0.0628
     48 H         -13.6297   10.2002   -0.0078 H       1  LIG1        0.0804
     49 S         -12.3977    5.8896   -0.0035 S.2     1  LIG1       -0.0327
     50 H         -11.3438    5.1116   -0.0033 H       1  LIG1        0.1664
     51 C         -11.0359   11.0510   -0.0066 C.3     1  LIG1       -0.0384
     52 H         -11.8133   11.5861    0.4976 H       1  LIG1        0.0278
     53 H         -10.9601   11.3989   -1.0157 H       1  LIG1        0.0278
     54 H         -10.1062   11.2135    0.4975 H       1  LIG1        0.0278
@<TRIPOS>BOND
     1    53    51    1
     2    26    24    1
     3    13    11    1
     4    39    37    1
     5    36    20    1
     6    35    28    2
     7    33    28   ar
     8    33    50    1
     9    33    32   ar
    10    28    29   ar
    11    48    45    1
    12    51    44    1
    13    51    54    1
    14    51    52    1
    15    45    44    1
    16    45    46    2
    17    44    43    2
    18    46    41    1
    19    47    43    1
    20    43    42    1
    21    41    42    1
    22    41    49    2
    23    42    32    2
    24    32    31   ar
    25    21    17    1
    26     7     3    1
    27    16     5    2
    28    16    15   ar
    29    16    17   ar
    30    19    20   ar
    31    19    29    2
    32    19    18   ar
    33    24    18    1
    34    24    27    1
    35    24    25    1
    36    11     4    1
    37    11    14    1
    38    11    12    1
    39     5     6   ar
    40     5     4   ar
    41    15    22    2
    42    15    20   ar
    43    17    18   ar
    44    23     6    1
    45    29    30   ar
    46     6     1   ar
    47     4     3   ar
    48     1     2   ar
    49     1     9    1
    50     2     3   ar
    51     2     8    1
    52     9    10    1
    53    31    30   ar
    54    31    37    1
    55    30    34    1
    56    37    40    1
    57    37    38    1
