@<TRIPOS>MOLECULE
mol_data/noopt/geoms/mol2/6gi6gi-6gi6gi.out
 54 57 0 0 0
SMALL
GASTEIGER

@<TRIPOS>ATOM
      1 C          -4.5775   -2.0270    0.0001 C.ar    1  LIG1        0.0707
      2 C          -3.1706   -2.0270    0.0001 C.ar    1  LIG1       -0.0317
      3 C          -2.5039   -0.8004    0.0001 C.ar    1  LIG1       -0.0544
      4 C          -3.2580    0.3743   -0.0001 C.ar    1  LIG1       -0.0264
      5 C          -4.6612    0.2715   -0.0003 C.ar    1  LIG1        0.0527
      6 N          -5.3207   -0.9034   -0.0001 N.ar    1  LIG1       -0.3493
      7 H          -1.4054   -0.7607   -0.0009 H       1  LIG1        0.0622
      8 H          -2.5135   -3.1487    0.0004 H       1  LIG1        0.0643
      9 S          -5.2431   -3.1436    0.0002 S.3     1  LIG1       -0.1253
     10 H          -4.4062   -4.1515    0.0002 H       1  LIG1        0.1085
     11 C          -2.6845    1.5413   -0.0003 C.3     1  LIG1       -0.0377
     12 H          -3.3112    2.2468    0.5041 H       1  LIG1        0.0278
     13 H          -2.5273    1.8613   -1.0092 H       1  LIG1        0.0278
     14 H          -1.7430    1.4761    0.5040 H       1  LIG1        0.0278
     15 C          -6.8087    1.2234   -0.0215 C.ar    1  LIG1        0.0939
     16 C          -5.4065    1.3366   -0.0004 C.ar    1  LIG1        0.0295
     17 C          -4.8409    2.6128    0.0206 C.ar    1  LIG1       -0.0452
     18 C          -5.6872    3.7230    0.0196 C.ar    1  LIG1       -0.0258
     19 C          -7.0774    3.5076   -0.0025 C.ar    1  LIG1        0.0527
     20 N          -7.6400    2.2835   -0.0227 N.ar    1  LIG1       -0.3480
     21 H          -3.7493    2.7408    0.0363 H       1  LIG1        0.0628
     22 S          -7.3820    0.0569   -0.0413 S.2     1  LIG1       -0.0321
     23 H          -6.4666   -0.8802   -0.0480 H       1  LIG1        0.1664
     24 C          -5.2097    4.9323    0.0384 C.3     1  LIG1       -0.0377
     25 H          -5.8939    5.5781    0.5479 H       1  LIG1        0.0278
     26 H          -5.0734    5.2776   -0.9652 H       1  LIG1        0.0278
     27 H          -4.2687    4.9363    0.5479 H       1  LIG1        0.0278
     28 C          -9.2947    4.2833   -0.0051 C.ar    1  LIG1        0.0939
     29 C          -7.9061    4.5092   -0.0043 C.ar    1  LIG1        0.0295
     30 C          -7.4450    5.8270   -0.0051 C.ar    1  LIG1       -0.0452
     31 C          -8.3779    6.8653   -0.0068 C.ar    1  LIG1       -0.0258
     32 C          -9.7464    6.5386   -0.0077 C.ar    1  LIG1        0.0526
     33 N         -10.2087    5.2730   -0.0067 N.ar    1  LIG1       -0.3480
     34 H          -6.3671    6.0425   -0.0055 H       1  LIG1        0.0628
     35 S          -9.7724    3.0743   -0.0043 S.2     1  LIG1       -0.0321
     36 H          -8.7845    2.2139   -0.0040 H       1  LIG1        0.1664
     37 C          -7.9992    8.1093   -0.0078 C.3     1  LIG1       -0.0377
     38 H          -8.7310    8.7053    0.4964 H       1  LIG1        0.0278
     39 H          -7.8956    8.4498   -1.0169 H       1  LIG1        0.0278
     40 H          -7.0594    8.1964    0.4963 H       1  LIG1        0.0278
     41 C         -12.0190    7.1332   -0.0099 C.2     1  LIG1        0.1058
     42 C         -10.6531    7.4702   -0.0092 C.2     1  LIG1        0.0290
     43 C         -10.2996    8.8208   -0.0099 C.2     1  LIG1       -0.0461
     44 C         -11.3132    9.7806   -0.0114 C.2     1  LIG1       -0.0340
     45 C         -12.6509    9.3447   -0.0122 C.2     1  LIG1        0.0209
     46 N         -13.0097    8.0460   -0.0113 N.am    1  LIG1       -0.2141
     47 H          -9.2426    9.1225   -0.0104 H       1  LIG1        0.0628
     48 H         -13.6296   10.2002   -0.0135 H       1  LIG1        0.0804
     49 S         -12.3977    5.8896   -0.0092 S.2     1  LIG1       -0.0327
     50 H         -11.3438    5.1116   -0.0089 H       1  LIG1        0.1664
     51 C         -11.0359   11.0510   -0.0123 C.3     1  LIG1       -0.0384
     52 H         -11.8133   11.5862    0.4919 H       1  LIG1        0.0278
     53 H         -10.9600   11.3989   -1.0213 H       1  LIG1        0.0278
     54 H         -10.1062   11.2135    0.4919 H       1  LIG1        0.0278
@<TRIPOS>BOND
     1    53    51    1
     2    39    37    1
     3    13    11    1
     4    26    24    1
     5    23     6    1
     6    22    15    2
     7    20    15   ar
     8    20    36    1
     9    20    19   ar
    10    15    16   ar
    11    48    45    1
    12    51    44    1
    13    51    54    1
    14    51    52    1
    15    45    44    1
    16    45    46    2
    17    44    43    2
    18    46    41    1
    19    47    43    1
    20    43    42    1
    21    41    42    1
    22    41    49    2
    23    42    32    2
    24    50    33    1
    25    37    31    1
    26    37    40    1
    27    37    38    1
    28    32    31   ar
    29    32    33   ar
    30    31    30   ar
    31    33    28   ar
    32    34    30    1
    33    30    29   ar
    34    28    29   ar
    35    28    35    2
    36    29    19    2
    37    19    18   ar
    38     7     3    1
    39    16     5    2
    40    16    17   ar
    41    11     4    1
    42    11    14    1
    43    11    12    1
    44     5     6   ar
    45     5     4   ar
    46     6     1   ar
    47     4     3   ar
    48     1     2   ar
    49     1     9    1
    50     2     3   ar
    51     2     8    1
    52     9    10    1
    53    18    17   ar
    54    18    24    1
    55    17    21    1
    56    24    27    1
    57    24    25    1
