@<TRIPOS>MOLECULE
mol_data/noopt/geoms/mol2/6gi6gi6gi6gi.out
 54 57 0 0 0
SMALL
GASTEIGER

@<TRIPOS>ATOM
      1 C          -4.5775   -2.0270    0.0001 C.ar    1  LIG1        0.0707
      2 C          -3.1706   -2.0270    0.0001 C.ar    1  LIG1       -0.0317
      3 C          -2.5039   -0.8004    0.0001 C.ar    1  LIG1       -0.0544
      4 C          -3.2580    0.3743   -0.0001 C.ar    1  LIG1       -0.0264
      5 C          -4.6612    0.2715   -0.0003 C.ar    1  LIG1        0.0527
      6 N          -5.3207   -0.9034   -0.0001 N.ar    1  LIG1       -0.3493
      7 H          -1.4054   -0.7607   -0.0009 H       1  LIG1        0.0622
      8 H          -2.5135   -3.1487    0.0004 H       1  LIG1        0.0643
      9 S          -5.2431   -3.1436    0.0002 S.3     1  LIG1       -0.1253
     10 H          -4.4062   -4.1515    0.0002 H       1  LIG1        0.1085
     11 C          -2.6845    1.5413   -0.0003 C.3     1  LIG1       -0.0377
     12 H          -3.3112    2.2468    0.5041 H       1  LIG1        0.0278
     13 H          -2.5273    1.8613   -1.0092 H       1  LIG1        0.0278
     14 H          -1.7430    1.4761    0.5040 H       1  LIG1        0.0278
     15 C          -6.8088    1.2233   -0.0003 C.ar    1  LIG1        0.0939
     16 C          -5.4065    1.3366   -0.0004 C.ar    1  LIG1        0.0295
     17 C          -4.8408    2.6129   -0.0003 C.ar    1  LIG1       -0.0452
     18 C          -5.6871    3.7231   -0.0003 C.ar    1  LIG1       -0.0258
     19 C          -7.0774    3.5076   -0.0004 C.ar    1  LIG1        0.0527
     20 N          -7.6401    2.2834   -0.0003 N.ar    1  LIG1       -0.3480
     21 H          -3.7491    2.7410   -0.0014 H       1  LIG1        0.0628
     22 S          -7.3823    0.0567   -0.0003 S.2     1  LIG1       -0.0321
     23 H          -6.4670   -0.8805   -0.0003 H       1  LIG1        0.1664
     24 C          -5.2094    4.9325   -0.0004 C.3     1  LIG1       -0.0377
     25 H          -5.8909    5.5852    0.5040 H       1  LIG1        0.0278
     26 H          -5.0784    5.2642   -1.0092 H       1  LIG1        0.0278
     27 H          -4.2658    4.9433    0.5040 H       1  LIG1        0.0278
     28 C          -9.2948    4.2833   -0.0001 C.ar    1  LIG1        0.0939
     29 C          -7.9061    4.5092   -0.0003 C.ar    1  LIG1        0.0295
     30 C          -7.4450    5.8270   -0.0001 C.ar    1  LIG1       -0.0452
     31 C          -8.3780    6.8653    0.0002 C.ar    1  LIG1       -0.0258
     32 C          -9.7465    6.5385    0.0002 C.ar    1  LIG1        0.0526
     33 N         -10.2087    5.2730    0.0002 N.ar    1  LIG1       -0.3480
     34 H          -6.3672    6.0425   -0.0012 H       1  LIG1        0.0628
     35 S          -9.7724    3.0743   -0.0002 S.2     1  LIG1       -0.0321
     36 H          -8.7845    2.2139   -0.0002 H       1  LIG1        0.1664
     37 C          -7.9993    8.1093    0.0002 C.3     1  LIG1       -0.0377
     38 H          -8.7311    8.7049    0.5046 H       1  LIG1        0.0278
     39 H          -7.8954    8.4505   -1.0087 H       1  LIG1        0.0278
     40 H          -7.0596    8.1960    0.5046 H       1  LIG1        0.0278
     41 C         -12.0191    7.1331    0.0008 C.2     1  LIG1        0.1058
     42 C         -10.6531    7.4702    0.0005 C.2     1  LIG1        0.0290
     43 C         -10.2997    8.8208    0.0008 C.2     1  LIG1       -0.0461
     44 C         -11.3132    9.7806    0.0012 C.2     1  LIG1       -0.0340
     45 C         -12.6510    9.3446    0.0013 C.2     1  LIG1        0.0209
     46 N         -13.0098    8.0460    0.0012 N.am    1  LIG1       -0.2141
     47 H          -9.2427    9.1225   -0.0004 H       1  LIG1        0.0628
     48 H         -13.6297   10.2002    0.0018 H       1  LIG1        0.0804
     49 S         -12.3978    5.8895    0.0006 S.2     1  LIG1       -0.0327
     50 H         -11.3438    5.1115    0.0005 H       1  LIG1        0.1664
     51 C         -11.0360   11.0510    0.0014 C.3     1  LIG1       -0.0384
     52 H         -11.8135   11.5857    0.5058 H       1  LIG1        0.0278
     53 H         -10.9599   11.3996   -1.0074 H       1  LIG1        0.0278
     54 H         -10.1063   11.2131    0.5058 H       1  LIG1        0.0278
@<TRIPOS>BOND
     1    26    24    1
     2    13    11    1
     3    39    37    1
     4    53    51    1
     5    21    17    1
     6    34    30    1
     7     7     3    1
     8    47    43    1
     9    16     5    2
    10    16    15   ar
    11    16    17   ar
    12    19    20   ar
    13    19    29    2
    14    19    18   ar
    15    24    18    1
    16    24    27    1
    17    24    25    1
    18    11     4    1
    19    11    14    1
    20    11    12    1
    21     5     6   ar
    22     5     4   ar
    23    15    22    2
    24    15    20   ar
    25    17    18   ar
    26    23     6    1
    27    20    36    1
    28    29    28   ar
    29    29    30   ar
    30    35    28    2
    31     6     1   ar
    32     4     3   ar
    33    28    33   ar
    34    30    31   ar
    35     1     2   ar
    36     1     9    1
    37     2     3   ar
    38     2     8    1
    39    33    32   ar
    40    33    50    1
    41    32    31   ar
    42    32    42    2
    43    31    37    1
    44    37    40    1
    45    37    38    1
    46     9    10    1
    47    42    41    1
    48    42    43    1
    49    49    41    2
    50    41    46    1
    51    43    44    2
    52    46    45    2
    53    44    45    1
    54    44    51    1
    55    45    48    1
    56    51    54    1
    57    51    52    1
