@<TRIPOS>MOLECULE
mol_data/noopt/geoms/mol2/6gi6gi-.out
 28 29 0 0 0
SMALL
GASTEIGER

@<TRIPOS>ATOM
      1 C          -4.5775   -2.0270    0.0001 C.ar    1  LIG1        0.0707
      2 C          -3.1706   -2.0270    0.0001 C.ar    1  LIG1       -0.0317
      3 C          -2.5039   -0.8004    0.0001 C.ar    1  LIG1       -0.0544
      4 C          -3.2580    0.3743   -0.0001 C.ar    1  LIG1       -0.0264
      5 C          -4.6612    0.2715   -0.0003 C.ar    1  LIG1        0.0525
      6 N          -5.3207   -0.9034   -0.0001 N.ar    1  LIG1       -0.3493
      7 H          -1.4054   -0.7607   -0.0009 H       1  LIG1        0.0622
      8 H          -2.5135   -3.1487    0.0004 H       1  LIG1        0.0643
      9 S          -5.2431   -3.1436    0.0002 S.3     1  LIG1       -0.1253
     10 H          -4.4062   -4.1515    0.0002 H       1  LIG1        0.1085
     11 C          -2.6845    1.5413   -0.0003 C.3     1  LIG1       -0.0377
     12 H          -3.3112    2.2468    0.5041 H       1  LIG1        0.0278
     13 H          -2.5273    1.8613   -1.0092 H       1  LIG1        0.0278
     14 H          -1.7430    1.4761    0.5040 H       1  LIG1        0.0278
     15 C          -6.8087    1.2234   -0.0215 C.2     1  LIG1        0.1058
     16 C          -5.4065    1.3366   -0.0004 C.2     1  LIG1        0.0290
     17 C          -4.8409    2.6128    0.0206 C.2     1  LIG1       -0.0461
     18 C          -5.6872    3.7230    0.0196 C.2     1  LIG1       -0.0340
     19 C          -7.0774    3.5076   -0.0025 C.2     1  LIG1        0.0209
     20 N          -7.6400    2.2835   -0.0227 N.am    1  LIG1       -0.2141
     21 H          -3.7493    2.7408    0.0363 H       1  LIG1        0.0628
     22 H          -7.9061    4.5092   -0.0043 H       1  LIG1        0.0804
     23 S          -7.3820    0.0569   -0.0413 S.2     1  LIG1       -0.0327
     24 H          -6.4666   -0.8802   -0.0480 H       1  LIG1        0.1664
     25 C          -5.2097    4.9323    0.0384 C.3     1  LIG1       -0.0384
     26 H          -5.8939    5.5781    0.5479 H       1  LIG1        0.0278
     27 H          -5.0734    5.2776   -0.9652 H       1  LIG1        0.0278
     28 H          -4.2687    4.9363    0.5479 H       1  LIG1        0.0278
@<TRIPOS>BOND
     1    13    11    1
     2    27    25    1
     3    24     6    1
     4    23    15    2
     5    20    15    1
     6    20    19    2
     7    15    16    1
     8    22    19    1
     9    19    18    1
    10     7     3    1
    11    16     5    2
    12    16    17    1
    13     5     4   ar
    14     5     6   ar
    15    11     4    1
    16    11    14    1
    17    11    12    1
    18     4     3   ar
    19     6     1   ar
    20     1     2   ar
    21     1     9    1
    22     3     2   ar
    23     2     8    1
    24     9    10    1
    25    18    17    2
    26    18    25    1
    27    17    21    1
    28    25    28    1
    29    25    26    1
