@<TRIPOS>MOLECULE
mol_data/noopt/geoms/mol2/6gi6gi-6gi6gi-.out
 54 57 0 0 0
SMALL
GASTEIGER

@<TRIPOS>ATOM
      1 C          -4.5775   -2.0270    0.0001 C.ar    1  LIG1        0.0707
      2 C          -3.1706   -2.0270    0.0001 C.ar    1  LIG1       -0.0317
      3 C          -2.5039   -0.8004    0.0001 C.ar    1  LIG1       -0.0544
      4 C          -3.2580    0.3743   -0.0001 C.ar    1  LIG1       -0.0264
      5 C          -4.6612    0.2715   -0.0003 C.ar    1  LIG1        0.0527
      6 N          -5.3207   -0.9034   -0.0001 N.ar    1  LIG1       -0.3493
      7 H          -1.4054   -0.7607   -0.0009 H       1  LIG1        0.0622
      8 H          -2.5135   -3.1487    0.0004 H       1  LIG1        0.0643
      9 S          -5.2431   -3.1436    0.0002 S.3     1  LIG1       -0.1253
     10 H          -4.4062   -4.1515    0.0002 H       1  LIG1        0.1085
     11 C          -2.6845    1.5413   -0.0003 C.3     1  LIG1       -0.0377
     12 H          -3.3112    2.2468    0.5041 H       1  LIG1        0.0278
     13 H          -2.5273    1.8613   -1.0092 H       1  LIG1        0.0278
     14 H          -1.7430    1.4761    0.5040 H       1  LIG1        0.0278
     15 C          -6.8087    1.2234   -0.0215 C.ar    1  LIG1        0.0939
     16 C          -5.4065    1.3366   -0.0004 C.ar    1  LIG1        0.0295
     17 C          -4.8409    2.6128    0.0206 C.ar    1  LIG1       -0.0452
     18 C          -5.6872    3.7230    0.0196 C.ar    1  LIG1       -0.0258
     19 C          -7.0774    3.5076   -0.0025 C.ar    1  LIG1        0.0527
     20 N          -7.6400    2.2835   -0.0227 N.ar    1  LIG1       -0.3480
     21 H          -3.7493    2.7408    0.0363 H       1  LIG1        0.0628
     22 S          -7.3820    0.0569   -0.0413 S.2     1  LIG1       -0.0321
     23 H          -6.4666   -0.8802   -0.0480 H       1  LIG1        0.1664
     24 C          -5.2097    4.9323    0.0384 C.3     1  LIG1       -0.0377
     25 H          -5.8939    5.5781    0.5479 H       1  LIG1        0.0278
     26 H          -5.0734    5.2776   -0.9652 H       1  LIG1        0.0278
     27 H          -4.2687    4.9363    0.5479 H       1  LIG1        0.0278
     28 C          -9.2947    4.2833   -0.0051 C.ar    1  LIG1        0.0939
     29 C          -7.9061    4.5092   -0.0043 C.ar    1  LIG1        0.0295
     30 C          -7.4450    5.8270   -0.0051 C.ar    1  LIG1       -0.0452
     31 C          -8.3779    6.8653   -0.0068 C.ar    1  LIG1       -0.0258
     32 C          -9.7464    6.5386   -0.0077 C.ar    1  LIG1        0.0526
     33 N         -10.2087    5.2730   -0.0067 N.ar    1  LIG1       -0.3480
     34 H          -6.3671    6.0425   -0.0055 H       1  LIG1        0.0628
     35 S          -9.7724    3.0743   -0.0043 S.2     1  LIG1       -0.0321
     36 H          -8.7845    2.2139   -0.0040 H       1  LIG1        0.1664
     37 C          -7.9992    8.1093   -0.0078 C.3     1  LIG1       -0.0377
     38 H          -8.7310    8.7053    0.4964 H       1  LIG1        0.0278
     39 H          -7.8956    8.4498   -1.0169 H       1  LIG1        0.0278
     40 H          -7.0594    8.1964    0.4963 H       1  LIG1        0.0278
     41 C         -12.0189    7.1333   -0.0310 C.2     1  LIG1        0.1058
     42 C         -10.6531    7.4702   -0.0092 C.2     1  LIG1        0.0290
     43 C         -10.2998    8.8207    0.0110 C.2     1  LIG1       -0.0461
     44 C         -11.3133    9.7805    0.0085 C.2     1  LIG1       -0.0340
     45 C         -12.6509    9.3447   -0.0143 C.2     1  LIG1        0.0209
     46 N         -13.0096    8.0461   -0.0338 N.am    1  LIG1       -0.2141
     47 H          -9.2429    9.1223    0.0273 H       1  LIG1        0.0628
     48 H         -13.6296   10.2003   -0.0175 H       1  LIG1        0.0804
     49 S         -12.3974    5.8898   -0.0502 S.2     1  LIG1       -0.0327
     50 H         -11.3434    5.1119   -0.0566 H       1  LIG1        0.1664
     51 C         -11.0362   11.0508    0.0265 C.3     1  LIG1       -0.0384
     52 H         -11.8152   11.5787    0.5358 H       1  LIG1        0.0278
     53 H         -10.9572   11.4130   -0.9773 H       1  LIG1        0.0278
     54 H         -10.1080   11.2062    0.5358 H       1  LIG1        0.0278
@<TRIPOS>BOND
     1    39    37    1
     2    13    11    1
     3    53    51    1
     4    26    24    1
     5    50    33    1
     6    49    41    2
     7    23     6    1
     8    22    15    2
     9    46    41    1
    10    46    45    2
    11    41    42    1
    12    20    15   ar
    13    20    36    1
    14    20    19   ar
    15    15    16   ar
    16    48    45    1
    17    45    44    1
    18    42    32    2
    19    42    43    1
    20    37    31    1
    21    37    40    1
    22    37    38    1
    23    32    31   ar
    24    32    33   ar
    25    31    30   ar
    26    33    28   ar
    27    34    30    1
    28    30    29   ar
    29    28    29   ar
    30    28    35    2
    31    29    19    2
    32    19    18   ar
    33     7     3    1
    34    16     5    2
    35    16    17   ar
    36    11     4    1
    37    11    14    1
    38    11    12    1
    39     5     6   ar
    40     5     4   ar
    41     6     1   ar
    42     4     3   ar
    43     1     2   ar
    44     1     9    1
    45     2     3   ar
    46     2     8    1
    47     9    10    1
    48    44    43    2
    49    44    51    1
    50    43    47    1
    51    18    17   ar
    52    18    24    1
    53    17    21    1
    54    51    54    1
    55    51    52    1
    56    24    27    1
    57    24    25    1
