@<TRIPOS>MOLECULE
mol_data/noopt/geoms/mol2/6gi6gi6gi6gi-.out
 54 57 0 0 0
SMALL
GASTEIGER

@<TRIPOS>ATOM
      1 C          -4.5775   -2.0270    0.0001 C.ar    1  LIG1        0.0707
      2 C          -3.1706   -2.0270    0.0001 C.ar    1  LIG1       -0.0317
      3 C          -2.5039   -0.8004    0.0001 C.ar    1  LIG1       -0.0544
      4 C          -3.2580    0.3743   -0.0001 C.ar    1  LIG1       -0.0264
      5 C          -4.6612    0.2715   -0.0003 C.ar    1  LIG1        0.0527
      6 N          -5.3207   -0.9034   -0.0001 N.ar    1  LIG1       -0.3493
      7 H          -1.4054   -0.7607   -0.0009 H       1  LIG1        0.0622
      8 H          -2.5135   -3.1487    0.0004 H       1  LIG1        0.0643
      9 S          -5.2431   -3.1436    0.0002 S.3     1  LIG1       -0.1253
     10 H          -4.4062   -4.1515    0.0002 H       1  LIG1        0.1085
     11 C          -2.6845    1.5413   -0.0003 C.3     1  LIG1       -0.0377
     12 H          -3.3112    2.2468    0.5041 H       1  LIG1        0.0278
     13 H          -2.5273    1.8613   -1.0092 H       1  LIG1        0.0278
     14 H          -1.7430    1.4761    0.5040 H       1  LIG1        0.0278
     15 C          -6.8088    1.2233   -0.0003 C.ar    1  LIG1        0.0939
     16 C          -5.4065    1.3366   -0.0004 C.ar    1  LIG1        0.0295
     17 C          -4.8408    2.6129   -0.0003 C.ar    1  LIG1       -0.0452
     18 C          -5.6871    3.7231   -0.0003 C.ar    1  LIG1       -0.0258
     19 C          -7.0774    3.5076   -0.0004 C.ar    1  LIG1        0.0527
     20 N          -7.6401    2.2834   -0.0003 N.ar    1  LIG1       -0.3480
     21 H          -3.7491    2.7410   -0.0014 H       1  LIG1        0.0628
     22 S          -7.3823    0.0567   -0.0003 S.2     1  LIG1       -0.0321
     23 H          -6.4670   -0.8805   -0.0003 H       1  LIG1        0.1664
     24 C          -5.2094    4.9325   -0.0004 C.3     1  LIG1       -0.0377
     25 H          -5.8909    5.5852    0.5040 H       1  LIG1        0.0278
     26 H          -5.0784    5.2642   -1.0092 H       1  LIG1        0.0278
     27 H          -4.2658    4.9433    0.5040 H       1  LIG1        0.0278
     28 C          -9.2948    4.2833   -0.0001 C.ar    1  LIG1        0.0939
     29 C          -7.9061    4.5092   -0.0003 C.ar    1  LIG1        0.0295
     30 C          -7.4450    5.8270   -0.0001 C.ar    1  LIG1       -0.0452
     31 C          -8.3780    6.8653    0.0002 C.ar    1  LIG1       -0.0258
     32 C          -9.7465    6.5385    0.0002 C.ar    1  LIG1        0.0526
     33 N         -10.2087    5.2730    0.0002 N.ar    1  LIG1       -0.3480
     34 H          -6.3672    6.0425   -0.0012 H       1  LIG1        0.0628
     35 S          -9.7724    3.0743   -0.0002 S.2     1  LIG1       -0.0321
     36 H          -8.7845    2.2139   -0.0002 H       1  LIG1        0.1664
     37 C          -7.9993    8.1093    0.0002 C.3     1  LIG1       -0.0377
     38 H          -8.7311    8.7049    0.5046 H       1  LIG1        0.0278
     39 H          -7.8954    8.4505   -1.0087 H       1  LIG1        0.0278
     40 H          -7.0596    8.1960    0.5046 H       1  LIG1        0.0278
     41 C         -12.0189    7.1333   -0.0204 C.2     1  LIG1        0.1058
     42 C         -10.6531    7.4702    0.0005 C.2     1  LIG1        0.0290
     43 C         -10.2998    8.8206    0.0216 C.2     1  LIG1       -0.0461
     44 C         -11.3134    9.7805    0.0211 C.2     1  LIG1       -0.0340
     45 C         -12.6509    9.3447   -0.0008 C.2     1  LIG1        0.0209
     46 N         -13.0097    8.0461   -0.0212 N.am    1  LIG1       -0.2141
     47 H          -9.2429    9.1222    0.0373 H       1  LIG1        0.0628
     48 H         -13.6297   10.2002   -0.0022 H       1  LIG1        0.0804
     49 S         -12.3975    5.8898   -0.0404 S.2     1  LIG1       -0.0327
     50 H         -11.3435    5.1119   -0.0472 H       1  LIG1        0.1664
     51 C         -11.0362   11.0508    0.0401 C.3     1  LIG1       -0.0384
     52 H         -11.8153   11.5782    0.5497 H       1  LIG1        0.0278
     53 H         -10.9571   11.4137   -0.9634 H       1  LIG1        0.0278
     54 H         -10.1082   11.2057    0.5497 H       1  LIG1        0.0278
@<TRIPOS>BOND
     1    26    24    1
     2    13    11    1
     3    39    37    1
     4    53    51    1
     5    50    33    1
     6    49    41    2
     7    46    41    1
     8    46    45    2
     9    41    42    1
    10    48    45    1
    11    21    17    1
    12    34    30    1
    13     7     3    1
    14    45    44    1
    15    16     5    2
    16    16    15   ar
    17    16    17   ar
    18    19    20   ar
    19    19    29    2
    20    19    18   ar
    21    24    18    1
    22    24    27    1
    23    24    25    1
    24    11     4    1
    25    11    14    1
    26    11    12    1
    27     5     6   ar
    28     5     4   ar
    29    15    22    2
    30    15    20   ar
    31    17    18   ar
    32    23     6    1
    33    20    36    1
    34    29    28   ar
    35    29    30   ar
    36    35    28    2
    37     6     1   ar
    38     4     3   ar
    39    28    33   ar
    40    30    31   ar
    41     1     2   ar
    42     1     9    1
    43     2     3   ar
    44     2     8    1
    45    33    32   ar
    46    32    31   ar
    47    32    42    2
    48    31    37    1
    49    37    40    1
    50    37    38    1
    51     9    10    1
    52    42    43    1
    53    44    43    2
    54    44    51    1
    55    43    47    1
    56    51    54    1
    57    51    52    1
