@<TRIPOS>MOLECULE
mol_data/noopt/geoms/mol2/6gi6gi-6gi-.out
 41 43 0 0 0
SMALL
GASTEIGER

@<TRIPOS>ATOM
      1 C          -4.5775   -2.0270    0.0001 C.ar    1  LIG1        0.0707
      2 C          -3.1706   -2.0270    0.0001 C.ar    1  LIG1       -0.0317
      3 C          -2.5039   -0.8004    0.0001 C.ar    1  LIG1       -0.0544
      4 C          -3.2580    0.3743   -0.0001 C.ar    1  LIG1       -0.0264
      5 C          -4.6612    0.2715   -0.0003 C.ar    1  LIG1        0.0527
      6 N          -5.3207   -0.9034   -0.0001 N.ar    1  LIG1       -0.3493
      7 H          -1.4054   -0.7607   -0.0009 H       1  LIG1        0.0622
      8 H          -2.5135   -3.1487    0.0004 H       1  LIG1        0.0643
      9 S          -5.2431   -3.1436    0.0002 S.3     1  LIG1       -0.1253
     10 H          -4.4062   -4.1515    0.0002 H       1  LIG1        0.1085
     11 C          -2.6845    1.5413   -0.0003 C.3     1  LIG1       -0.0377
     12 H          -3.3112    2.2468    0.5041 H       1  LIG1        0.0278
     13 H          -2.5273    1.8613   -1.0092 H       1  LIG1        0.0278
     14 H          -1.7430    1.4761    0.5040 H       1  LIG1        0.0278
     15 C          -6.8087    1.2234   -0.0215 C.ar    1  LIG1        0.0939
     16 C          -5.4065    1.3366   -0.0004 C.ar    1  LIG1        0.0295
     17 C          -4.8409    2.6128    0.0206 C.ar    1  LIG1       -0.0452
     18 C          -5.6872    3.7230    0.0196 C.ar    1  LIG1       -0.0258
     19 C          -7.0774    3.5076   -0.0025 C.ar    1  LIG1        0.0526
     20 N          -7.6400    2.2835   -0.0227 N.ar    1  LIG1       -0.3480
     21 H          -3.7493    2.7408    0.0363 H       1  LIG1        0.0628
     22 S          -7.3820    0.0569   -0.0413 S.2     1  LIG1       -0.0321
     23 H          -6.4666   -0.8802   -0.0480 H       1  LIG1        0.1664
     24 C          -5.2097    4.9323    0.0384 C.3     1  LIG1       -0.0377
     25 H          -5.8939    5.5781    0.5479 H       1  LIG1        0.0278
     26 H          -5.0734    5.2776   -0.9652 H       1  LIG1        0.0278
     27 H          -4.2687    4.9363    0.5479 H       1  LIG1        0.0278
     28 C          -9.2946    4.2834   -0.0262 C.2     1  LIG1        0.1058
     29 C          -7.9061    4.5092   -0.0043 C.2     1  LIG1        0.0290
     30 C          -7.4452    5.8269    0.0158 C.2     1  LIG1       -0.0461
     31 C          -8.3781    6.8652    0.0131 C.2     1  LIG1       -0.0340
     32 C          -9.7464    6.5386   -0.0098 C.2     1  LIG1        0.0209
     33 N         -10.2085    5.2731   -0.0292 N.am    1  LIG1       -0.2141
     34 H          -6.3674    6.0424    0.0322 H       1  LIG1        0.0628
     35 H         -10.6530    7.4702   -0.0132 H       1  LIG1        0.0804
     36 S          -9.7721    3.0745   -0.0453 S.2     1  LIG1       -0.0327
     37 H          -8.7841    2.2142   -0.0517 H       1  LIG1        0.1664
     38 C          -7.9995    8.1091    0.0310 C.3     1  LIG1       -0.0384
     39 H          -8.7335    8.6980    0.5403 H       1  LIG1        0.0278
     40 H          -7.8917    8.4636   -0.9729 H       1  LIG1        0.0278
     41 H          -7.0619    8.1892    0.5402 H       1  LIG1        0.0278
@<TRIPOS>BOND
     1    13    11    1
     2    40    38    1
     3    26    24    1
     4    37    20    1
     5    23     6    1
     6    36    28    2
     7    22    15    2
     8    33    28    1
     9    33    32    2
    10    28    29    1
    11    20    15   ar
    12    20    19   ar
    13    15    16   ar
    14    35    32    1
    15    32    31    1
    16    29    19    2
    17    29    30    1
    18    19    18   ar
    19     7     3    1
    20    16     5    2
    21    16    17   ar
    22    11     4    1
    23    11    14    1
    24    11    12    1
    25     5     4   ar
    26     5     6   ar
    27     4     3   ar
    28     6     1   ar
    29     2     3   ar
    30     2     1   ar
    31     2     8    1
    32     1     9    1
    33     9    10    1
    34    31    30    2
    35    31    38    1
    36    30    34    1
    37    18    17   ar
    38    18    24    1
    39    17    21    1
    40    38    41    1
    41    38    39    1
    42    24    27    1
    43    24    25    1
