@<TRIPOS>MOLECULE
mol_data/noopt/geoms/mol2/6gi6gi.out
 28 29 0 0 0
SMALL
GASTEIGER

@<TRIPOS>ATOM
      1 C          -4.5775   -2.0270    0.0001 C.ar    1  LIG1        0.0707
      2 C          -3.1706   -2.0270    0.0001 C.ar    1  LIG1       -0.0317
      3 C          -2.5039   -0.8004    0.0001 C.ar    1  LIG1       -0.0544
      4 C          -3.2580    0.3743   -0.0001 C.ar    1  LIG1       -0.0264
      5 C          -4.6612    0.2715   -0.0003 C.ar    1  LIG1        0.0525
      6 N          -5.3207   -0.9034   -0.0001 N.ar    1  LIG1       -0.3493
      7 H          -1.4054   -0.7607   -0.0009 H       1  LIG1        0.0622
      8 H          -2.5135   -3.1487    0.0004 H       1  LIG1        0.0643
      9 S          -5.2431   -3.1436    0.0002 S.3     1  LIG1       -0.1253
     10 H          -4.4062   -4.1515    0.0002 H       1  LIG1        0.1085
     11 C          -2.6845    1.5413   -0.0003 C.3     1  LIG1       -0.0377
     12 H          -3.3112    2.2468    0.5041 H       1  LIG1        0.0278
     13 H          -2.5273    1.8613   -1.0092 H       1  LIG1        0.0278
     14 H          -1.7430    1.4761    0.5040 H       1  LIG1        0.0278
     15 C          -6.8088    1.2233   -0.0003 C.2     1  LIG1        0.1058
     16 C          -5.4065    1.3366   -0.0004 C.2     1  LIG1        0.0290
     17 C          -4.8408    2.6129   -0.0003 C.2     1  LIG1       -0.0461
     18 C          -5.6871    3.7231   -0.0003 C.2     1  LIG1       -0.0340
     19 C          -7.0774    3.5076   -0.0004 C.2     1  LIG1        0.0209
     20 N          -7.6401    2.2834   -0.0003 N.am    1  LIG1       -0.2141
     21 H          -3.7491    2.7410   -0.0014 H       1  LIG1        0.0628
     22 H          -7.9061    4.5092   -0.0003 H       1  LIG1        0.0804
     23 S          -7.3823    0.0567   -0.0003 S.2     1  LIG1       -0.0327
     24 H          -6.4670   -0.8805   -0.0003 H       1  LIG1        0.1664
     25 C          -5.2094    4.9325   -0.0004 C.3     1  LIG1       -0.0384
     26 H          -5.8909    5.5852    0.5040 H       1  LIG1        0.0278
     27 H          -5.0784    5.2642   -1.0092 H       1  LIG1        0.0278
     28 H          -4.2658    4.9433    0.5040 H       1  LIG1        0.0278
@<TRIPOS>BOND
     1    27    25    1
     2    13    11    1
     3    21    17    1
     4     7     3    1
     5    16     5    2
     6    16    15    1
     7    16    17    1
     8    19    20    2
     9    19    22    1
    10    19    18    1
    11    25    18    1
    12    25    28    1
    13    25    26    1
    14     5     6   ar
    15     5     4   ar
    16    11     4    1
    17    11    14    1
    18    11    12    1
    19    15    23    2
    20    15    20    1
    21    17    18    2
    22    24     6    1
    23     6     1   ar
    24     4     3   ar
    25     1     2   ar
    26     1     9    1
    27     3     2   ar
    28     2     8    1
    29     9    10    1
