@<TRIPOS>MOLECULE
mol_data/noopt/geoms/mol2/6gl.out
 16 16 0 0 0
SMALL
GASTEIGER

@<TRIPOS>ATOM
      1 C          -4.5775   -2.0270    0.0001 C.ar    1  LIG1        0.0942
      2 C          -3.1706   -2.0270    0.0001 C.ar    1  LIG1       -0.0266
      3 C          -2.5039   -0.8004    0.0001 C.ar    1  LIG1       -0.0159
      4 C          -3.2580    0.3743   -0.0001 C.ar    1  LIG1        0.1382
      5 C          -4.6612    0.2715   -0.0003 C.ar    1  LIG1        0.0704
      6 N          -5.3207   -0.9034   -0.0001 N.ar    1  LIG1       -0.2454
      7 H          -1.4054   -0.7607   -0.0009 H       1  LIG1        0.0655
      8 H          -2.5135   -3.1487    0.0004 H       1  LIG1        0.0645
      9 H          -5.4065    1.3366   -0.0004 H       1  LIG1        0.0867
     10 S          -5.2431   -3.1436    0.0002 S.3     1  LIG1       -0.1234
     11 H          -4.4062   -4.1515    0.0002 H       1  LIG1        0.1086
     12 O          -2.6846    1.5410   -0.0003 O.3     1  LIG1       -0.4936
     13 C          -1.2643    1.3748   -0.0004 C.3     1  LIG1        0.0789
     14 H          -0.7927    2.3353   -0.0008 H       1  LIG1        0.0660
     15 H          -0.9685    0.8326    0.8734 H       1  LIG1        0.0660
     16 H          -0.9687    0.8321   -0.8739 H       1  LIG1        0.0660
@<TRIPOS>BOND
     1    16    13    1
     2     7     3    1
     3    14    13    1
     4    13    12    1
     5    13    15    1
     6     9     5    1
     7     5     4   ar
     8     5     6   ar
     9    12     4    1
    10     4     3   ar
    11     6     1   ar
    12     1     2   ar
    13     1    10    1
    14     2     3   ar
    15     2     8    1
    16    10    11    1
