@<TRIPOS>MOLECULE
mol_data/noopt/geoms/mol2/6gl6gl6gl.out
 44 46 0 0 0
SMALL
GASTEIGER

@<TRIPOS>ATOM
      1 C          -4.5775   -2.0270    0.0001 C.ar    1  LIG1        0.0709
      2 C          -3.1706   -2.0270    0.0001 C.ar    1  LIG1       -0.0285
      3 C          -2.5039   -0.8004    0.0001 C.ar    1  LIG1       -0.0155
      4 C          -3.2580    0.3743   -0.0001 C.ar    1  LIG1        0.1440
      5 C          -4.6612    0.2715   -0.0003 C.ar    1  LIG1        0.0920
      6 N          -5.3207   -0.9034   -0.0001 N.ar    1  LIG1       -0.3467
      7 H          -1.4054   -0.7607   -0.0009 H       1  LIG1        0.0655
      8 H          -2.5135   -3.1487    0.0004 H       1  LIG1        0.0644
      9 S          -5.2431   -3.1436    0.0002 S.3     1  LIG1       -0.1253
     10 H          -4.4062   -4.1515    0.0002 H       1  LIG1        0.1085
     11 O          -2.6846    1.5410   -0.0003 O.3     1  LIG1       -0.4930
     12 C          -1.2643    1.3748   -0.0004 C.3     1  LIG1        0.0789
     13 H          -0.7927    2.3353   -0.0008 H       1  LIG1        0.0660
     14 H          -0.9685    0.8326    0.8734 H       1  LIG1        0.0660
     15 H          -0.9687    0.8321   -0.8739 H       1  LIG1        0.0660
     16 C          -6.8088    1.2233   -0.0003 C.ar    1  LIG1        0.0942
     17 C          -5.4065    1.3366   -0.0004 C.ar    1  LIG1        0.0360
     18 C          -4.8408    2.6129   -0.0003 C.ar    1  LIG1       -0.0062
     19 C          -5.6871    3.7231   -0.0003 C.ar    1  LIG1        0.1447
     20 C          -7.0774    3.5076   -0.0004 C.ar    1  LIG1        0.0920
     21 N          -7.6401    2.2834   -0.0003 N.ar    1  LIG1       -0.3454
     22 H          -3.7491    2.7410   -0.0014 H       1  LIG1        0.0662
     23 S          -7.3823    0.0567   -0.0003 S.2     1  LIG1       -0.0321
     24 H          -6.4670   -0.8805   -0.0003 H       1  LIG1        0.1665
     25 O          -5.2095    4.9322   -0.0004 O.3     1  LIG1       -0.4930
     26 C          -3.7804    4.8809   -0.0005 C.3     1  LIG1        0.0789
     27 H          -3.3877    5.8763   -0.0007 H       1  LIG1        0.0660
     28 H          -3.4420    4.3642    0.8733 H       1  LIG1        0.0660
     29 H          -3.4421    4.3639   -0.8740 H       1  LIG1        0.0660
     30 C          -9.2948    4.2833   -0.0001 C.2     1  LIG1        0.1062
     31 C          -7.9061    4.5092   -0.0003 C.2     1  LIG1        0.0356
     32 C          -7.4450    5.8270   -0.0001 C.2     1  LIG1       -0.0071
     33 C          -8.3780    6.8653    0.0002 C.2     1  LIG1        0.1364
     34 C          -9.7465    6.5385    0.0002 C.2     1  LIG1        0.0596
     35 N         -10.2087    5.2730    0.0002 N.am    1  LIG1       -0.2108
     36 H          -6.3672    6.0425   -0.0012 H       1  LIG1        0.0662
     37 H         -10.6531    7.4701    0.0005 H       1  LIG1        0.0839
     38 S          -9.7724    3.0743   -0.0002 S.2     1  LIG1       -0.0327
     39 H          -8.7845    2.2139   -0.0002 H       1  LIG1        0.1665
     40 O          -7.9993    8.1090    0.0002 O.2     1  LIG1       -0.4938
     41 C          -6.5708    8.1730    0.0001 C.3     1  LIG1        0.0788
     42 H          -6.2596    9.1967   -0.0000 H       1  LIG1        0.0660
     43 H          -6.1918    7.6852    0.8739 H       1  LIG1        0.0660
     44 H          -6.1919    7.6849   -0.8734 H       1  LIG1        0.0660
@<TRIPOS>BOND
     1    29    26    1
     2    15    12    1
     3    44    41    1
     4    22    18    1
     5    36    32    1
     6     7     3    1
     7    13    12    1
     8    27    26    1
     9    26    25    1
    10    26    28    1
    11    12    11    1
    12    12    14    1
    13    17     5    2
    14    17    16   ar
    15    17    18   ar
    16    20    21   ar
    17    20    31    2
    18    20    19   ar
    19    25    19    1
    20    11     4    1
    21     5     6   ar
    22     5     4   ar
    23    16    23    2
    24    16    21   ar
    25    18    19   ar
    26    24     6    1
    27    21    39    1
    28    31    30    1
    29    31    32    1
    30    38    30    2
    31     6     1   ar
    32     4     3   ar
    33    30    35    1
    34    32    33    2
    35    42    41    1
    36     1     2   ar
    37     1     9    1
    38     3     2   ar
    39     2     8    1
    40    41    40    1
    41    41    43    1
    42    35    34    2
    43    34    33    1
    44    34    37    1
    45    33    40    1
    46     9    10    1
