@<TRIPOS>MOLECULE
mol_data/noopt/geoms/mol2/6gl6gl-6gl.out
 44 46 0 0 0
SMALL
GASTEIGER

@<TRIPOS>ATOM
      1 C          -4.5775   -2.0270    0.0001 C.ar    1  LIG1        0.0709
      2 C          -3.1706   -2.0270    0.0001 C.ar    1  LIG1       -0.0285
      3 C          -2.5039   -0.8004    0.0001 C.ar    1  LIG1       -0.0155
      4 C          -3.2580    0.3743   -0.0001 C.ar    1  LIG1        0.1440
      5 C          -4.6612    0.2715   -0.0003 C.ar    1  LIG1        0.0920
      6 N          -5.3207   -0.9034   -0.0001 N.ar    1  LIG1       -0.3467
      7 H          -1.4054   -0.7607   -0.0009 H       1  LIG1        0.0655
      8 H          -2.5135   -3.1487    0.0004 H       1  LIG1        0.0644
      9 S          -5.2431   -3.1436    0.0002 S.3     1  LIG1       -0.1253
     10 H          -4.4062   -4.1515    0.0002 H       1  LIG1        0.1085
     11 O          -2.6846    1.5410   -0.0003 O.3     1  LIG1       -0.4930
     12 C          -1.2643    1.3748   -0.0004 C.3     1  LIG1        0.0789
     13 H          -0.7927    2.3353   -0.0008 H       1  LIG1        0.0660
     14 H          -0.9685    0.8326    0.8734 H       1  LIG1        0.0660
     15 H          -0.9687    0.8321   -0.8739 H       1  LIG1        0.0660
     16 C          -6.8087    1.2234   -0.0215 C.ar    1  LIG1        0.0942
     17 C          -5.4065    1.3366   -0.0004 C.ar    1  LIG1        0.0360
     18 C          -4.8409    2.6128    0.0206 C.ar    1  LIG1       -0.0062
     19 C          -5.6872    3.7230    0.0196 C.ar    1  LIG1        0.1447
     20 C          -7.0774    3.5076   -0.0025 C.ar    1  LIG1        0.0920
     21 N          -7.6400    2.2835   -0.0227 N.ar    1  LIG1       -0.3454
     22 H          -3.7493    2.7408    0.0363 H       1  LIG1        0.0662
     23 S          -7.3820    0.0569   -0.0413 S.2     1  LIG1       -0.0321
     24 H          -6.4666   -0.8802   -0.0480 H       1  LIG1        0.1665
     25 O          -5.2098    4.9320    0.0384 O.3     1  LIG1       -0.4930
     26 C          -3.7807    4.8808    0.0452 C.3     1  LIG1        0.0789
     27 H          -3.3882    5.8761    0.0606 H       1  LIG1        0.0660
     28 H          -3.4469    4.3523    0.9137 H       1  LIG1        0.0660
     29 H          -3.4377    4.3756   -0.8334 H       1  LIG1        0.0660
     30 C          -9.2947    4.2833   -0.0051 C.2     1  LIG1        0.1062
     31 C          -7.9061    4.5092   -0.0043 C.2     1  LIG1        0.0356
     32 C          -7.4450    5.8270   -0.0051 C.2     1  LIG1       -0.0071
     33 C          -8.3779    6.8653   -0.0068 C.2     1  LIG1        0.1364
     34 C          -9.7464    6.5386   -0.0077 C.2     1  LIG1        0.0596
     35 N         -10.2087    5.2730   -0.0067 N.am    1  LIG1       -0.2108
     36 H          -6.3671    6.0425   -0.0055 H       1  LIG1        0.0662
     37 H         -10.6531    7.4702   -0.0092 H       1  LIG1        0.0839
     38 S          -9.7724    3.0743   -0.0043 S.2     1  LIG1       -0.0327
     39 H          -8.7845    2.2139   -0.0040 H       1  LIG1        0.1665
     40 O          -7.9993    8.1090   -0.0078 O.2     1  LIG1       -0.4938
     41 C          -6.5707    8.1730   -0.0082 C.3     1  LIG1        0.0788
     42 H          -6.2595    9.1967   -0.0092 H       1  LIG1        0.0660
     43 H          -6.1916    7.6858    0.8658 H       1  LIG1        0.0660
     44 H          -6.1920    7.6843   -0.8815 H       1  LIG1        0.0660
@<TRIPOS>BOND
     1    44    41    1
     2    15    12    1
     3    29    26    1
     4    24     6    1
     5    23    16    2
     6    21    16   ar
     7    21    39    1
     8    21    20   ar
     9    16    17   ar
    10    37    34    1
    11    42    41    1
    12    41    40    1
    13    41    43    1
    14    40    33    1
    15    34    33    1
    16    34    35    2
    17    33    32    2
    18    35    30    1
    19    36    32    1
    20    32    31    1
    21    30    31    1
    22    30    38    2
    23    31    20    2
    24    20    19   ar
    25     7     3    1
    26    13    12    1
    27    12    11    1
    28    12    14    1
    29    17     5    2
    30    17    18   ar
    31     5     4   ar
    32     5     6   ar
    33    11     4    1
    34     4     3   ar
    35     6     1   ar
    36     2     3   ar
    37     2     1   ar
    38     2     8    1
    39     1     9    1
    40     9    10    1
    41    19    18   ar
    42    19    25    1
    43    18    22    1
    44    25    26    1
    45    26    27    1
    46    26    28    1
