@<TRIPOS>MOLECULE
mol_data/noopt/geoms/mol2/6gl6gl6gl-6gl.out
 58 61 0 0 0
SMALL
GASTEIGER

@<TRIPOS>ATOM
      1 C          -4.5775   -2.0270    0.0001 C.ar    1  LIG1        0.0709
      2 C          -3.1706   -2.0270    0.0001 C.ar    1  LIG1       -0.0285
      3 C          -2.5039   -0.8004    0.0001 C.ar    1  LIG1       -0.0155
      4 C          -3.2580    0.3743   -0.0001 C.ar    1  LIG1        0.1440
      5 C          -4.6612    0.2715   -0.0003 C.ar    1  LIG1        0.0920
      6 N          -5.3207   -0.9034   -0.0001 N.ar    1  LIG1       -0.3467
      7 H          -1.4054   -0.7607   -0.0009 H       1  LIG1        0.0655
      8 H          -2.5135   -3.1487    0.0004 H       1  LIG1        0.0644
      9 S          -5.2431   -3.1436    0.0002 S.3     1  LIG1       -0.1253
     10 H          -4.4062   -4.1515    0.0002 H       1  LIG1        0.1085
     11 O          -2.6846    1.5410   -0.0003 O.3     1  LIG1       -0.4930
     12 C          -1.2643    1.3748   -0.0004 C.3     1  LIG1        0.0789
     13 H          -0.7927    2.3353   -0.0008 H       1  LIG1        0.0660
     14 H          -0.9685    0.8326    0.8734 H       1  LIG1        0.0660
     15 H          -0.9687    0.8321   -0.8739 H       1  LIG1        0.0660
     16 C          -6.8088    1.2233   -0.0003 C.ar    1  LIG1        0.0942
     17 C          -5.4065    1.3366   -0.0004 C.ar    1  LIG1        0.0360
     18 C          -4.8408    2.6129   -0.0003 C.ar    1  LIG1       -0.0062
     19 C          -5.6871    3.7231   -0.0003 C.ar    1  LIG1        0.1447
     20 C          -7.0774    3.5076   -0.0004 C.ar    1  LIG1        0.0921
     21 N          -7.6401    2.2834   -0.0003 N.ar    1  LIG1       -0.3454
     22 H          -3.7491    2.7410   -0.0014 H       1  LIG1        0.0662
     23 S          -7.3823    0.0567   -0.0003 S.2     1  LIG1       -0.0321
     24 H          -6.4670   -0.8805   -0.0003 H       1  LIG1        0.1665
     25 O          -5.2095    4.9322   -0.0004 O.3     1  LIG1       -0.4930
     26 C          -3.7804    4.8809   -0.0005 C.3     1  LIG1        0.0789
     27 H          -3.3877    5.8763   -0.0007 H       1  LIG1        0.0660
     28 H          -3.4420    4.3642    0.8733 H       1  LIG1        0.0660
     29 H          -3.4421    4.3639   -0.8740 H       1  LIG1        0.0660
     30 C          -9.2946    4.2834   -0.0212 C.ar    1  LIG1        0.0942
     31 C          -7.9061    4.5092   -0.0003 C.ar    1  LIG1        0.0360
     32 C          -7.4452    5.8268    0.0208 C.ar    1  LIG1       -0.0062
     33 C          -8.3781    6.8652    0.0200 C.ar    1  LIG1        0.1447
     34 C          -9.7464    6.5385   -0.0020 C.ar    1  LIG1        0.0920
     35 N         -10.2086    5.2731   -0.0223 N.ar    1  LIG1       -0.3454
     36 H          -6.3674    6.0423    0.0365 H       1  LIG1        0.0662
     37 S          -9.7721    3.0745   -0.0412 S.2     1  LIG1       -0.0321
     38 H          -8.7842    2.2142   -0.0479 H       1  LIG1        0.1665
     39 O          -7.9996    8.1088    0.0389 O.3     1  LIG1       -0.4930
     40 C          -6.5711    8.1728    0.0458 C.3     1  LIG1        0.0789
     41 H          -6.2600    9.1965    0.0612 H       1  LIG1        0.0660
     42 H          -6.1958    7.6729    0.9143 H       1  LIG1        0.0660
     43 H          -6.1884    7.6970   -0.8328 H       1  LIG1        0.0660
     44 C         -12.0191    7.1332   -0.0042 C.2     1  LIG1        0.1062
     45 C         -10.6531    7.4702   -0.0035 C.2     1  LIG1        0.0356
     46 C         -10.2997    8.8208   -0.0042 C.2     1  LIG1       -0.0071
     47 C         -11.3132    9.7806   -0.0057 C.2     1  LIG1        0.1364
     48 C         -12.6509    9.3447   -0.0065 C.2     1  LIG1        0.0596
     49 N         -13.0098    8.0460   -0.0057 N.am    1  LIG1       -0.2108
     50 H          -9.2427    9.1225   -0.0047 H       1  LIG1        0.0662
     51 H         -13.6297   10.2002   -0.0078 H       1  LIG1        0.0839
     52 S         -12.3977    5.8896   -0.0035 S.2     1  LIG1       -0.0327
     53 H         -11.3438    5.1116   -0.0033 H       1  LIG1        0.1665
     54 O         -11.0360   11.0508   -0.0066 O.2     1  LIG1       -0.4938
     55 C          -9.6172   11.2296   -0.0070 C.3     1  LIG1        0.0788
     56 H          -9.3895   12.2751   -0.0079 H       1  LIG1        0.0660
     57 H          -9.2001   10.7745    0.8670 H       1  LIG1        0.0660
     58 H          -9.2004   10.7731   -0.8803 H       1  LIG1        0.0660
@<TRIPOS>BOND
     1    58    55    1
     2    29    26    1
     3    15    12    1
     4    43    40    1
     5    38    21    1
     6    37    30    2
     7    35    30   ar
     8    35    53    1
     9    35    34   ar
    10    30    31   ar
    11    56    55    1
    12    51    48    1
    13    55    54    1
    14    55    57    1
    15    54    47    1
    16    48    47    1
    17    48    49    2
    18    47    46    2
    19    49    44    1
    20    50    46    1
    21    46    45    1
    22    44    45    1
    23    44    52    2
    24    45    34    2
    25    34    33   ar
    26    22    18    1
    27     7     3    1
    28    13    12    1
    29    27    26    1
    30    26    25    1
    31    26    28    1
    32    12    11    1
    33    12    14    1
    34    17     5    2
    35    17    16   ar
    36    17    18   ar
    37    20    21   ar
    38    20    31    2
    39    20    19   ar
    40    25    19    1
    41     5     6   ar
    42     5     4   ar
    43    11     4    1
    44    16    23    2
    45    16    21   ar
    46    18    19   ar
    47    24     6    1
    48    31    32   ar
    49     6     1   ar
    50     4     3   ar
    51     2     3   ar
    52     2     1   ar
    53     2     8    1
    54     1     9    1
    55     9    10    1
    56    33    32   ar
    57    33    39    1
    58    32    36    1
    59    39    40    1
    60    40    41    1
    61    40    42    1
