@<TRIPOS>MOLECULE
mol_data/noopt/geoms/mol2/6gl6gl-6gl6gl.out
 58 61 0 0 0
SMALL
GASTEIGER

@<TRIPOS>ATOM
      1 C          -4.5775   -2.0270    0.0001 C.ar    1  LIG1        0.0709
      2 C          -3.1706   -2.0270    0.0001 C.ar    1  LIG1       -0.0285
      3 C          -2.5039   -0.8004    0.0001 C.ar    1  LIG1       -0.0155
      4 C          -3.2580    0.3743   -0.0001 C.ar    1  LIG1        0.1440
      5 C          -4.6612    0.2715   -0.0003 C.ar    1  LIG1        0.0920
      6 N          -5.3207   -0.9034   -0.0001 N.ar    1  LIG1       -0.3467
      7 H          -1.4054   -0.7607   -0.0009 H       1  LIG1        0.0655
      8 H          -2.5135   -3.1487    0.0004 H       1  LIG1        0.0644
      9 S          -5.2431   -3.1436    0.0002 S.3     1  LIG1       -0.1253
     10 H          -4.4062   -4.1515    0.0002 H       1  LIG1        0.1085
     11 O          -2.6846    1.5410   -0.0003 O.3     1  LIG1       -0.4930
     12 C          -1.2643    1.3748   -0.0004 C.3     1  LIG1        0.0789
     13 H          -0.7927    2.3353   -0.0008 H       1  LIG1        0.0660
     14 H          -0.9685    0.8326    0.8734 H       1  LIG1        0.0660
     15 H          -0.9687    0.8321   -0.8739 H       1  LIG1        0.0660
     16 C          -6.8087    1.2234   -0.0215 C.ar    1  LIG1        0.0942
     17 C          -5.4065    1.3366   -0.0004 C.ar    1  LIG1        0.0360
     18 C          -4.8409    2.6128    0.0206 C.ar    1  LIG1       -0.0062
     19 C          -5.6872    3.7230    0.0196 C.ar    1  LIG1        0.1447
     20 C          -7.0774    3.5076   -0.0025 C.ar    1  LIG1        0.0921
     21 N          -7.6400    2.2835   -0.0227 N.ar    1  LIG1       -0.3454
     22 H          -3.7493    2.7408    0.0363 H       1  LIG1        0.0662
     23 S          -7.3820    0.0569   -0.0413 S.2     1  LIG1       -0.0321
     24 H          -6.4666   -0.8802   -0.0480 H       1  LIG1        0.1665
     25 O          -5.2098    4.9320    0.0384 O.3     1  LIG1       -0.4930
     26 C          -3.7807    4.8808    0.0452 C.3     1  LIG1        0.0789
     27 H          -3.3882    5.8761    0.0606 H       1  LIG1        0.0660
     28 H          -3.4469    4.3523    0.9137 H       1  LIG1        0.0660
     29 H          -3.4377    4.3756   -0.8334 H       1  LIG1        0.0660
     30 C          -9.2947    4.2833   -0.0051 C.ar    1  LIG1        0.0942
     31 C          -7.9061    4.5092   -0.0043 C.ar    1  LIG1        0.0360
     32 C          -7.4450    5.8270   -0.0051 C.ar    1  LIG1       -0.0062
     33 C          -8.3779    6.8653   -0.0068 C.ar    1  LIG1        0.1447
     34 C          -9.7464    6.5386   -0.0077 C.ar    1  LIG1        0.0920
     35 N         -10.2087    5.2730   -0.0067 N.ar    1  LIG1       -0.3454
     36 H          -6.3671    6.0425   -0.0055 H       1  LIG1        0.0662
     37 S          -9.7724    3.0743   -0.0043 S.2     1  LIG1       -0.0321
     38 H          -8.7845    2.2139   -0.0040 H       1  LIG1        0.1665
     39 O          -7.9993    8.1090   -0.0078 O.3     1  LIG1       -0.4930
     40 C          -6.5707    8.1730   -0.0082 C.3     1  LIG1        0.0789
     41 H          -6.2595    9.1967   -0.0092 H       1  LIG1        0.0660
     42 H          -6.1916    7.6858    0.8658 H       1  LIG1        0.0660
     43 H          -6.1920    7.6843   -0.8815 H       1  LIG1        0.0660
     44 C         -12.0190    7.1332   -0.0099 C.2     1  LIG1        0.1062
     45 C         -10.6531    7.4702   -0.0092 C.2     1  LIG1        0.0356
     46 C         -10.2996    8.8208   -0.0099 C.2     1  LIG1       -0.0071
     47 C         -11.3132    9.7806   -0.0114 C.2     1  LIG1        0.1364
     48 C         -12.6509    9.3447   -0.0122 C.2     1  LIG1        0.0596
     49 N         -13.0097    8.0460   -0.0113 N.am    1  LIG1       -0.2108
     50 H          -9.2426    9.1225   -0.0104 H       1  LIG1        0.0662
     51 H         -13.6296   10.2002   -0.0135 H       1  LIG1        0.0839
     52 S         -12.3977    5.8896   -0.0092 S.2     1  LIG1       -0.0327
     53 H         -11.3438    5.1116   -0.0089 H       1  LIG1        0.1665
     54 O         -11.0359   11.0508   -0.0123 O.2     1  LIG1       -0.4938
     55 C          -9.6172   11.2296   -0.0127 C.3     1  LIG1        0.0788
     56 H          -9.3894   12.2751   -0.0135 H       1  LIG1        0.0660
     57 H          -9.2000   10.7745    0.8613 H       1  LIG1        0.0660
     58 H          -9.2003   10.7731   -0.8860 H       1  LIG1        0.0660
@<TRIPOS>BOND
     1    58    55    1
     2    43    40    1
     3    15    12    1
     4    29    26    1
     5    24     6    1
     6    23    16    2
     7    21    16   ar
     8    21    38    1
     9    21    20   ar
    10    16    17   ar
    11    56    55    1
    12    51    48    1
    13    55    54    1
    14    55    57    1
    15    54    47    1
    16    48    47    1
    17    48    49    2
    18    47    46    2
    19    49    44    1
    20    50    46    1
    21    46    45    1
    22    44    45    1
    23    44    52    2
    24    45    34    2
    25    41    40    1
    26    53    35    1
    27    40    39    1
    28    40    42    1
    29    39    33    1
    30    34    33   ar
    31    34    35   ar
    32    33    32   ar
    33    35    30   ar
    34    36    32    1
    35    32    31   ar
    36    30    31   ar
    37    30    37    2
    38    31    20    2
    39    20    19   ar
    40     7     3    1
    41    13    12    1
    42    12    11    1
    43    12    14    1
    44    17     5    2
    45    17    18   ar
    46     5     4   ar
    47     5     6   ar
    48    11     4    1
    49     4     3   ar
    50     6     1   ar
    51     2     3   ar
    52     2     1   ar
    53     2     8    1
    54     1     9    1
    55     9    10    1
    56    19    18   ar
    57    19    25    1
    58    18    22    1
    59    25    26    1
    60    26    27    1
    61    26    28    1
