@<TRIPOS>MOLECULE
mol_data/noopt/geoms/mol2/6gl6gl-6gl-6gl-.out
 58 61 0 0 0
SMALL
GASTEIGER

@<TRIPOS>ATOM
      1 C          -4.5775   -2.0270    0.0001 C.ar    1  LIG1        0.0709
      2 C          -3.1706   -2.0270    0.0001 C.ar    1  LIG1       -0.0285
      3 C          -2.5039   -0.8004    0.0001 C.ar    1  LIG1       -0.0155
      4 C          -3.2580    0.3743   -0.0001 C.ar    1  LIG1        0.1440
      5 C          -4.6612    0.2715   -0.0003 C.ar    1  LIG1        0.0920
      6 N          -5.3207   -0.9034   -0.0001 N.ar    1  LIG1       -0.3467
      7 H          -1.4054   -0.7607   -0.0009 H       1  LIG1        0.0655
      8 H          -2.5135   -3.1487    0.0004 H       1  LIG1        0.0644
      9 S          -5.2431   -3.1436    0.0002 S.3     1  LIG1       -0.1253
     10 H          -4.4062   -4.1515    0.0002 H       1  LIG1        0.1085
     11 O          -2.6846    1.5410   -0.0003 O.3     1  LIG1       -0.4930
     12 C          -1.2643    1.3748   -0.0004 C.3     1  LIG1        0.0789
     13 H          -0.7927    2.3353   -0.0008 H       1  LIG1        0.0660
     14 H          -0.9685    0.8326    0.8734 H       1  LIG1        0.0660
     15 H          -0.9687    0.8321   -0.8739 H       1  LIG1        0.0660
     16 C          -6.8087    1.2234   -0.0215 C.ar    1  LIG1        0.0942
     17 C          -5.4065    1.3366   -0.0004 C.ar    1  LIG1        0.0360
     18 C          -4.8409    2.6128    0.0206 C.ar    1  LIG1       -0.0062
     19 C          -5.6872    3.7230    0.0196 C.ar    1  LIG1        0.1447
     20 C          -7.0774    3.5076   -0.0025 C.ar    1  LIG1        0.0921
     21 N          -7.6400    2.2835   -0.0227 N.ar    1  LIG1       -0.3454
     22 H          -3.7493    2.7408    0.0363 H       1  LIG1        0.0662
     23 S          -7.3820    0.0569   -0.0413 S.2     1  LIG1       -0.0321
     24 H          -6.4666   -0.8802   -0.0480 H       1  LIG1        0.1665
     25 O          -5.2098    4.9320    0.0384 O.3     1  LIG1       -0.4930
     26 C          -3.7807    4.8808    0.0452 C.3     1  LIG1        0.0789
     27 H          -3.3882    5.8761    0.0606 H       1  LIG1        0.0660
     28 H          -3.4469    4.3523    0.9137 H       1  LIG1        0.0660
     29 H          -3.4377    4.3756   -0.8334 H       1  LIG1        0.0660
     30 C          -9.2946    4.2834   -0.0262 C.ar    1  LIG1        0.0942
     31 C          -7.9061    4.5092   -0.0043 C.ar    1  LIG1        0.0360
     32 C          -7.4452    5.8269    0.0158 C.ar    1  LIG1       -0.0062
     33 C          -8.3781    6.8652    0.0131 C.ar    1  LIG1        0.1447
     34 C          -9.7464    6.5386   -0.0098 C.ar    1  LIG1        0.0920
     35 N         -10.2085    5.2731   -0.0292 N.ar    1  LIG1       -0.3454
     36 H          -6.3674    6.0424    0.0322 H       1  LIG1        0.0662
     37 S          -9.7721    3.0745   -0.0453 S.2     1  LIG1       -0.0321
     38 H          -8.7841    2.2142   -0.0517 H       1  LIG1        0.1665
     39 O          -7.9996    8.1088    0.0310 O.3     1  LIG1       -0.4930
     40 C          -6.5710    8.1729    0.0375 C.3     1  LIG1        0.0789
     41 H          -6.2599    9.1966    0.0521 H       1  LIG1        0.0660
     42 H          -6.1955    7.6736    0.9062 H       1  LIG1        0.0660
     43 H          -6.1886    7.6964   -0.8409 H       1  LIG1        0.0660
     44 C         -12.0188    7.1333   -0.0360 C.2     1  LIG1        0.1062
     45 C         -10.6531    7.4702   -0.0132 C.2     1  LIG1        0.0356
     46 C         -10.2998    8.8207    0.0060 C.2     1  LIG1       -0.0071
     47 C         -11.3133    9.7806    0.0015 C.2     1  LIG1        0.1364
     48 C         -12.6508    9.3447   -0.0222 C.2     1  LIG1        0.0596
     49 N         -13.0095    8.0461   -0.0407 N.am    1  LIG1       -0.2108
     50 H          -9.2429    9.1223    0.0231 H       1  LIG1        0.0662
     51 H         -13.6295   10.2003   -0.0271 H       1  LIG1        0.0839
     52 S         -12.3974    5.8898   -0.0543 S.2     1  LIG1       -0.0327
     53 H         -11.3434    5.1119   -0.0605 H       1  LIG1        0.1665
     54 O         -11.0362   11.0506    0.0185 O.2     1  LIG1       -0.4938
     55 C          -9.6174   11.2296    0.0247 C.3     1  LIG1        0.0788
     56 H          -9.3898   12.2750    0.0386 H       1  LIG1        0.0660
     57 H          -9.2028   10.7627    0.8937 H       1  LIG1        0.0660
     58 H          -9.1980   10.7848   -0.8534 H       1  LIG1        0.0660
@<TRIPOS>BOND
     1    15    12    1
     2    58    55    1
     3    43    40    1
     4    29    26    1
     5    53    35    1
     6    52    44    2
     7    38    21    1
     8    24     6    1
     9    37    30    2
    10    23    16    2
    11    49    44    1
    12    49    48    2
    13    44    45    1
    14    35    30   ar
    15    35    34   ar
    16    51    48    1
    17    30    31   ar
    18    21    16   ar
    19    21    20   ar
    20    48    47    1
    21    16    17   ar
    22    45    34    2
    23    45    46    1
    24    34    33   ar
    25    31    20    2
    26    31    32   ar
    27    20    19   ar
    28     7     3    1
    29    13    12    1
    30    12    11    1
    31    12    14    1
    32    17     5    2
    33    17    18   ar
    34     5     6   ar
    35     5     4   ar
    36    11     4    1
    37     6     1   ar
    38     4     3   ar
    39     2     3   ar
    40     2     1   ar
    41     2     8    1
    42     1     9    1
    43     9    10    1
    44    47    46    2
    45    47    54    1
    46    46    50    1
    47    33    32   ar
    48    33    39    1
    49    32    36    1
    50    54    55    1
    51    19    18   ar
    52    19    25    1
    53    18    22    1
    54    55    56    1
    55    55    57    1
    56    39    40    1
    57    40    41    1
    58    40    42    1
    59    25    26    1
    60    26    27    1
    61    26    28    1
