@<TRIPOS>MOLECULE
mol_data/noopt/geoms/mol2/6gl6gl6gl-.out
 44 46 0 0 0
SMALL
GASTEIGER

@<TRIPOS>ATOM
      1 C          -4.5775   -2.0270    0.0001 C.ar    1  LIG1        0.0709
      2 C          -3.1706   -2.0270    0.0001 C.ar    1  LIG1       -0.0285
      3 C          -2.5039   -0.8004    0.0001 C.ar    1  LIG1       -0.0155
      4 C          -3.2580    0.3743   -0.0001 C.ar    1  LIG1        0.1440
      5 C          -4.6612    0.2715   -0.0003 C.ar    1  LIG1        0.0920
      6 N          -5.3207   -0.9034   -0.0001 N.ar    1  LIG1       -0.3467
      7 H          -1.4054   -0.7607   -0.0009 H       1  LIG1        0.0655
      8 H          -2.5135   -3.1487    0.0004 H       1  LIG1        0.0644
      9 S          -5.2431   -3.1436    0.0002 S.3     1  LIG1       -0.1253
     10 H          -4.4062   -4.1515    0.0002 H       1  LIG1        0.1085
     11 O          -2.6846    1.5410   -0.0003 O.3     1  LIG1       -0.4930
     12 C          -1.2643    1.3748   -0.0004 C.3     1  LIG1        0.0789
     13 H          -0.7927    2.3353   -0.0008 H       1  LIG1        0.0660
     14 H          -0.9685    0.8326    0.8734 H       1  LIG1        0.0660
     15 H          -0.9687    0.8321   -0.8739 H       1  LIG1        0.0660
     16 C          -6.8088    1.2233   -0.0003 C.ar    1  LIG1        0.0942
     17 C          -5.4065    1.3366   -0.0004 C.ar    1  LIG1        0.0360
     18 C          -4.8408    2.6129   -0.0003 C.ar    1  LIG1       -0.0062
     19 C          -5.6871    3.7231   -0.0003 C.ar    1  LIG1        0.1447
     20 C          -7.0774    3.5076   -0.0004 C.ar    1  LIG1        0.0920
     21 N          -7.6401    2.2834   -0.0003 N.ar    1  LIG1       -0.3454
     22 H          -3.7491    2.7410   -0.0014 H       1  LIG1        0.0662
     23 S          -7.3823    0.0567   -0.0003 S.2     1  LIG1       -0.0321
     24 H          -6.4670   -0.8805   -0.0003 H       1  LIG1        0.1665
     25 O          -5.2095    4.9322   -0.0004 O.3     1  LIG1       -0.4930
     26 C          -3.7804    4.8809   -0.0005 C.3     1  LIG1        0.0789
     27 H          -3.3877    5.8763   -0.0007 H       1  LIG1        0.0660
     28 H          -3.4420    4.3642    0.8733 H       1  LIG1        0.0660
     29 H          -3.4421    4.3639   -0.8740 H       1  LIG1        0.0660
     30 C          -9.2946    4.2834   -0.0212 C.2     1  LIG1        0.1062
     31 C          -7.9061    4.5092   -0.0003 C.2     1  LIG1        0.0356
     32 C          -7.4452    5.8268    0.0208 C.2     1  LIG1       -0.0071
     33 C          -8.3781    6.8652    0.0200 C.2     1  LIG1        0.1364
     34 C          -9.7464    6.5385   -0.0020 C.2     1  LIG1        0.0596
     35 N         -10.2086    5.2731   -0.0223 N.am    1  LIG1       -0.2108
     36 H          -6.3674    6.0423    0.0365 H       1  LIG1        0.0662
     37 H         -10.6531    7.4702   -0.0035 H       1  LIG1        0.0839
     38 S          -9.7721    3.0745   -0.0412 S.2     1  LIG1       -0.0327
     39 H          -8.7842    2.2142   -0.0479 H       1  LIG1        0.1665
     40 O          -7.9996    8.1088    0.0389 O.2     1  LIG1       -0.4938
     41 C          -6.5711    8.1728    0.0458 C.3     1  LIG1        0.0788
     42 H          -6.2600    9.1965    0.0612 H       1  LIG1        0.0660
     43 H          -6.1958    7.6729    0.9143 H       1  LIG1        0.0660
     44 H          -6.1884    7.6970   -0.8328 H       1  LIG1        0.0660
@<TRIPOS>BOND
     1    29    26    1
     2    15    12    1
     3    44    41    1
     4    39    21    1
     5    38    30    2
     6    35    30    1
     7    35    34    2
     8    30    31    1
     9    37    34    1
    10    34    33    1
    11    22    18    1
    12     7     3    1
    13    13    12    1
    14    27    26    1
    15    26    25    1
    16    26    28    1
    17    12    11    1
    18    12    14    1
    19    17     5    2
    20    17    16   ar
    21    17    18   ar
    22    20    21   ar
    23    20    31    2
    24    20    19   ar
    25    25    19    1
    26    11     4    1
    27     5     4   ar
    28     5     6   ar
    29    16    23    2
    30    16    21   ar
    31    18    19   ar
    32    24     6    1
    33    31    32    1
    34     4     3   ar
    35     6     1   ar
    36     2     3   ar
    37     2     1   ar
    38     2     8    1
    39     1     9    1
    40     9    10    1
    41    33    32    2
    42    33    40    1
    43    32    36    1
    44    40    41    1
    45    41    42    1
    46    41    43    1
