@<TRIPOS>MOLECULE
mol_data/noopt/geoms/mol2/6gl6gl-.out
 30 31 0 0 0
SMALL
GASTEIGER

@<TRIPOS>ATOM
      1 C          -4.5775   -2.0270    0.0001 C.ar    1  LIG1        0.0709
      2 C          -3.1706   -2.0270    0.0001 C.ar    1  LIG1       -0.0285
      3 C          -2.5039   -0.8004    0.0001 C.ar    1  LIG1       -0.0155
      4 C          -3.2580    0.3743   -0.0001 C.ar    1  LIG1        0.1440
      5 C          -4.6612    0.2715   -0.0003 C.ar    1  LIG1        0.0919
      6 N          -5.3207   -0.9034   -0.0001 N.ar    1  LIG1       -0.3467
      7 H          -1.4054   -0.7607   -0.0009 H       1  LIG1        0.0655
      8 H          -2.5135   -3.1487    0.0004 H       1  LIG1        0.0644
      9 S          -5.2431   -3.1436    0.0002 S.3     1  LIG1       -0.1253
     10 H          -4.4062   -4.1515    0.0002 H       1  LIG1        0.1085
     11 O          -2.6846    1.5410   -0.0003 O.3     1  LIG1       -0.4930
     12 C          -1.2643    1.3748   -0.0004 C.3     1  LIG1        0.0789
     13 H          -0.7927    2.3353   -0.0008 H       1  LIG1        0.0660
     14 H          -0.9685    0.8326    0.8734 H       1  LIG1        0.0660
     15 H          -0.9687    0.8321   -0.8739 H       1  LIG1        0.0660
     16 C          -6.8087    1.2234   -0.0215 C.2     1  LIG1        0.1062
     17 C          -5.4065    1.3366   -0.0004 C.2     1  LIG1        0.0356
     18 C          -4.8409    2.6128    0.0206 C.2     1  LIG1       -0.0071
     19 C          -5.6872    3.7230    0.0196 C.2     1  LIG1        0.1364
     20 C          -7.0774    3.5076   -0.0025 C.2     1  LIG1        0.0596
     21 N          -7.6400    2.2835   -0.0227 N.am    1  LIG1       -0.2108
     22 H          -3.7493    2.7408    0.0363 H       1  LIG1        0.0662
     23 H          -7.9061    4.5092   -0.0043 H       1  LIG1        0.0839
     24 S          -7.3820    0.0569   -0.0413 S.2     1  LIG1       -0.0327
     25 H          -6.4666   -0.8802   -0.0480 H       1  LIG1        0.1665
     26 O          -5.2098    4.9320    0.0384 O.2     1  LIG1       -0.4938
     27 C          -3.7807    4.8808    0.0452 C.3     1  LIG1        0.0788
     28 H          -3.3882    5.8761    0.0606 H       1  LIG1        0.0660
     29 H          -3.4469    4.3523    0.9137 H       1  LIG1        0.0660
     30 H          -3.4377    4.3756   -0.8334 H       1  LIG1        0.0660
@<TRIPOS>BOND
     1    15    12    1
     2    30    27    1
     3    25     6    1
     4    24    16    2
     5    21    16    1
     6    21    20    2
     7    16    17    1
     8    23    20    1
     9    20    19    1
    10     7     3    1
    11    13    12    1
    12    12    11    1
    13    12    14    1
    14    17     5    2
    15    17    18    1
    16    11     4    1
    17     5     4   ar
    18     5     6   ar
    19     4     3   ar
    20     6     1   ar
    21     2     3   ar
    22     2     1   ar
    23     2     8    1
    24     1     9    1
    25     9    10    1
    26    19    18    2
    27    19    26    1
    28    18    22    1
    29    26    27    1
    30    27    28    1
    31    27    29    1
