@<TRIPOS>MOLECULE
mol_data/noopt/geoms/mol2/6gl6gl6gl6gl.out
 58 61 0 0 0
SMALL
GASTEIGER

@<TRIPOS>ATOM
      1 C          -4.5775   -2.0270    0.0001 C.ar    1  LIG1        0.0709
      2 C          -3.1706   -2.0270    0.0001 C.ar    1  LIG1       -0.0285
      3 C          -2.5039   -0.8004    0.0001 C.ar    1  LIG1       -0.0155
      4 C          -3.2580    0.3743   -0.0001 C.ar    1  LIG1        0.1440
      5 C          -4.6612    0.2715   -0.0003 C.ar    1  LIG1        0.0920
      6 N          -5.3207   -0.9034   -0.0001 N.ar    1  LIG1       -0.3467
      7 H          -1.4054   -0.7607   -0.0009 H       1  LIG1        0.0655
      8 H          -2.5135   -3.1487    0.0004 H       1  LIG1        0.0644
      9 S          -5.2431   -3.1436    0.0002 S.3     1  LIG1       -0.1253
     10 H          -4.4062   -4.1515    0.0002 H       1  LIG1        0.1085
     11 O          -2.6846    1.5410   -0.0003 O.3     1  LIG1       -0.4930
     12 C          -1.2643    1.3748   -0.0004 C.3     1  LIG1        0.0789
     13 H          -0.7927    2.3353   -0.0008 H       1  LIG1        0.0660
     14 H          -0.9685    0.8326    0.8734 H       1  LIG1        0.0660
     15 H          -0.9687    0.8321   -0.8739 H       1  LIG1        0.0660
     16 C          -6.8088    1.2233   -0.0003 C.ar    1  LIG1        0.0942
     17 C          -5.4065    1.3366   -0.0004 C.ar    1  LIG1        0.0360
     18 C          -4.8408    2.6129   -0.0003 C.ar    1  LIG1       -0.0062
     19 C          -5.6871    3.7231   -0.0003 C.ar    1  LIG1        0.1447
     20 C          -7.0774    3.5076   -0.0004 C.ar    1  LIG1        0.0921
     21 N          -7.6401    2.2834   -0.0003 N.ar    1  LIG1       -0.3454
     22 H          -3.7491    2.7410   -0.0014 H       1  LIG1        0.0662
     23 S          -7.3823    0.0567   -0.0003 S.2     1  LIG1       -0.0321
     24 H          -6.4670   -0.8805   -0.0003 H       1  LIG1        0.1665
     25 O          -5.2095    4.9322   -0.0004 O.3     1  LIG1       -0.4930
     26 C          -3.7804    4.8809   -0.0005 C.3     1  LIG1        0.0789
     27 H          -3.3877    5.8763   -0.0007 H       1  LIG1        0.0660
     28 H          -3.4420    4.3642    0.8733 H       1  LIG1        0.0660
     29 H          -3.4421    4.3639   -0.8740 H       1  LIG1        0.0660
     30 C          -9.2948    4.2833   -0.0001 C.ar    1  LIG1        0.0942
     31 C          -7.9061    4.5092   -0.0003 C.ar    1  LIG1        0.0360
     32 C          -7.4450    5.8270   -0.0001 C.ar    1  LIG1       -0.0062
     33 C          -8.3780    6.8653    0.0002 C.ar    1  LIG1        0.1447
     34 C          -9.7465    6.5385    0.0002 C.ar    1  LIG1        0.0920
     35 N         -10.2087    5.2730    0.0002 N.ar    1  LIG1       -0.3454
     36 H          -6.3672    6.0425   -0.0012 H       1  LIG1        0.0662
     37 S          -9.7724    3.0743   -0.0002 S.2     1  LIG1       -0.0321
     38 H          -8.7845    2.2139   -0.0002 H       1  LIG1        0.1665
     39 O          -7.9993    8.1090    0.0002 O.3     1  LIG1       -0.4930
     40 C          -6.5708    8.1730    0.0001 C.3     1  LIG1        0.0789
     41 H          -6.2596    9.1967   -0.0000 H       1  LIG1        0.0660
     42 H          -6.1918    7.6852    0.8739 H       1  LIG1        0.0660
     43 H          -6.1919    7.6849   -0.8734 H       1  LIG1        0.0660
     44 C         -12.0191    7.1331    0.0008 C.2     1  LIG1        0.1062
     45 C         -10.6531    7.4702    0.0005 C.2     1  LIG1        0.0356
     46 C         -10.2997    8.8208    0.0008 C.2     1  LIG1       -0.0071
     47 C         -11.3132    9.7806    0.0012 C.2     1  LIG1        0.1364
     48 C         -12.6510    9.3446    0.0013 C.2     1  LIG1        0.0596
     49 N         -13.0098    8.0460    0.0012 N.am    1  LIG1       -0.2108
     50 H          -9.2427    9.1225   -0.0004 H       1  LIG1        0.0662
     51 H         -13.6297   10.2002    0.0018 H       1  LIG1        0.0839
     52 S         -12.3978    5.8895    0.0006 S.2     1  LIG1       -0.0327
     53 H         -11.3438    5.1115    0.0005 H       1  LIG1        0.1665
     54 O         -11.0360   11.0507    0.0014 O.2     1  LIG1       -0.4938
     55 C          -9.6173   11.2296    0.0013 C.3     1  LIG1        0.0788
     56 H          -9.3895   12.2751    0.0013 H       1  LIG1        0.0660
     57 H          -9.2003   10.7738    0.8751 H       1  LIG1        0.0660
     58 H          -9.2003   10.7737   -0.8722 H       1  LIG1        0.0660
@<TRIPOS>BOND
     1    29    26    1
     2    15    12    1
     3    43    40    1
     4    58    55    1
     5    22    18    1
     6    36    32    1
     7     7     3    1
     8    13    12    1
     9    27    26    1
    10    26    25    1
    11    26    28    1
    12    50    46    1
    13    12    11    1
    14    12    14    1
    15    17     5    2
    16    17    16   ar
    17    17    18   ar
    18    20    21   ar
    19    20    31    2
    20    20    19   ar
    21    25    19    1
    22    11     4    1
    23     5     6   ar
    24     5     4   ar
    25    16    23    2
    26    16    21   ar
    27    18    19   ar
    28    24     6    1
    29    21    38    1
    30    31    30   ar
    31    31    32   ar
    32    37    30    2
    33     6     1   ar
    34     4     3   ar
    35    30    35   ar
    36    32    33   ar
    37    41    40    1
    38     1     2   ar
    39     1     9    1
    40     2     3   ar
    41     2     8    1
    42    40    39    1
    43    40    42    1
    44    35    34   ar
    45    35    53    1
    46    34    33   ar
    47    34    45    2
    48    33    39    1
    49     9    10    1
    50    45    44    1
    51    45    46    1
    52    52    44    2
    53    44    49    1
    54    46    47    2
    55    49    48    2
    56    47    48    1
    57    47    54    1
    58    56    55    1
    59    48    51    1
    60    55    54    1
    61    55    57    1
