@<TRIPOS>MOLECULE
mol_data/noopt/geoms/mol2/6gl6gl-6gl-.out
 44 46 0 0 0
SMALL
GASTEIGER

@<TRIPOS>ATOM
      1 C          -4.5775   -2.0270    0.0001 C.ar    1  LIG1        0.0709
      2 C          -3.1706   -2.0270    0.0001 C.ar    1  LIG1       -0.0285
      3 C          -2.5039   -0.8004    0.0001 C.ar    1  LIG1       -0.0155
      4 C          -3.2580    0.3743   -0.0001 C.ar    1  LIG1        0.1440
      5 C          -4.6612    0.2715   -0.0003 C.ar    1  LIG1        0.0920
      6 N          -5.3207   -0.9034   -0.0001 N.ar    1  LIG1       -0.3467
      7 H          -1.4054   -0.7607   -0.0009 H       1  LIG1        0.0655
      8 H          -2.5135   -3.1487    0.0004 H       1  LIG1        0.0644
      9 S          -5.2431   -3.1436    0.0002 S.3     1  LIG1       -0.1253
     10 H          -4.4062   -4.1515    0.0002 H       1  LIG1        0.1085
     11 O          -2.6846    1.5410   -0.0003 O.3     1  LIG1       -0.4930
     12 C          -1.2643    1.3748   -0.0004 C.3     1  LIG1        0.0789
     13 H          -0.7927    2.3353   -0.0008 H       1  LIG1        0.0660
     14 H          -0.9685    0.8326    0.8734 H       1  LIG1        0.0660
     15 H          -0.9687    0.8321   -0.8739 H       1  LIG1        0.0660
     16 C          -6.8087    1.2234   -0.0215 C.ar    1  LIG1        0.0942
     17 C          -5.4065    1.3366   -0.0004 C.ar    1  LIG1        0.0360
     18 C          -4.8409    2.6128    0.0206 C.ar    1  LIG1       -0.0062
     19 C          -5.6872    3.7230    0.0196 C.ar    1  LIG1        0.1447
     20 C          -7.0774    3.5076   -0.0025 C.ar    1  LIG1        0.0920
     21 N          -7.6400    2.2835   -0.0227 N.ar    1  LIG1       -0.3454
     22 H          -3.7493    2.7408    0.0363 H       1  LIG1        0.0662
     23 S          -7.3820    0.0569   -0.0413 S.2     1  LIG1       -0.0321
     24 H          -6.4666   -0.8802   -0.0480 H       1  LIG1        0.1665
     25 O          -5.2098    4.9320    0.0384 O.3     1  LIG1       -0.4930
     26 C          -3.7807    4.8808    0.0452 C.3     1  LIG1        0.0789
     27 H          -3.3882    5.8761    0.0606 H       1  LIG1        0.0660
     28 H          -3.4469    4.3523    0.9137 H       1  LIG1        0.0660
     29 H          -3.4377    4.3756   -0.8334 H       1  LIG1        0.0660
     30 C          -9.2946    4.2834   -0.0262 C.2     1  LIG1        0.1062
     31 C          -7.9061    4.5092   -0.0043 C.2     1  LIG1        0.0356
     32 C          -7.4452    5.8269    0.0158 C.2     1  LIG1       -0.0071
     33 C          -8.3781    6.8652    0.0131 C.2     1  LIG1        0.1364
     34 C          -9.7464    6.5386   -0.0098 C.2     1  LIG1        0.0596
     35 N         -10.2085    5.2731   -0.0292 N.am    1  LIG1       -0.2108
     36 H          -6.3674    6.0424    0.0322 H       1  LIG1        0.0662
     37 H         -10.6530    7.4702   -0.0132 H       1  LIG1        0.0839
     38 S          -9.7721    3.0745   -0.0453 S.2     1  LIG1       -0.0327
     39 H          -8.7841    2.2142   -0.0517 H       1  LIG1        0.1665
     40 O          -7.9996    8.1088    0.0310 O.2     1  LIG1       -0.4938
     41 C          -6.5710    8.1729    0.0375 C.3     1  LIG1        0.0788
     42 H          -6.2599    9.1966    0.0521 H       1  LIG1        0.0660
     43 H          -6.1955    7.6736    0.9062 H       1  LIG1        0.0660
     44 H          -6.1886    7.6964   -0.8409 H       1  LIG1        0.0660
@<TRIPOS>BOND
     1    15    12    1
     2    44    41    1
     3    29    26    1
     4    39    21    1
     5    24     6    1
     6    38    30    2
     7    23    16    2
     8    35    30    1
     9    35    34    2
    10    30    31    1
    11    21    16   ar
    12    21    20   ar
    13    16    17   ar
    14    37    34    1
    15    34    33    1
    16    31    20    2
    17    31    32    1
    18    20    19   ar
    19     7     3    1
    20    13    12    1
    21    12    11    1
    22    12    14    1
    23    17     5    2
    24    17    18   ar
    25     5     4   ar
    26     5     6   ar
    27    11     4    1
    28     4     3   ar
    29     6     1   ar
    30     1     2   ar
    31     1     9    1
    32     3     2   ar
    33     2     8    1
    34     9    10    1
    35    33    32    2
    36    33    40    1
    37    32    36    1
    38    19    18   ar
    39    19    25    1
    40    18    22    1
    41    40    41    1
    42    41    42    1
    43    41    43    1
    44    25    26    1
    45    26    27    1
    46    26    28    1
