@<TRIPOS>MOLECULE
mol_data/noopt/geoms/mol2/6gl6gl6gl-6gl-.out
 58 61 0 0 0
SMALL
GASTEIGER

@<TRIPOS>ATOM
      1 C          -4.5775   -2.0270    0.0001 C.ar    1  LIG1        0.0709
      2 C          -3.1706   -2.0270    0.0001 C.ar    1  LIG1       -0.0285
      3 C          -2.5039   -0.8004    0.0001 C.ar    1  LIG1       -0.0155
      4 C          -3.2580    0.3743   -0.0001 C.ar    1  LIG1        0.1440
      5 C          -4.6612    0.2715   -0.0003 C.ar    1  LIG1        0.0920
      6 N          -5.3207   -0.9034   -0.0001 N.ar    1  LIG1       -0.3467
      7 H          -1.4054   -0.7607   -0.0009 H       1  LIG1        0.0655
      8 H          -2.5135   -3.1487    0.0004 H       1  LIG1        0.0644
      9 S          -5.2431   -3.1436    0.0002 S.3     1  LIG1       -0.1253
     10 H          -4.4062   -4.1515    0.0002 H       1  LIG1        0.1085
     11 O          -2.6846    1.5410   -0.0003 O.3     1  LIG1       -0.4930
     12 C          -1.2643    1.3748   -0.0004 C.3     1  LIG1        0.0789
     13 H          -0.7927    2.3353   -0.0008 H       1  LIG1        0.0660
     14 H          -0.9685    0.8326    0.8734 H       1  LIG1        0.0660
     15 H          -0.9687    0.8321   -0.8739 H       1  LIG1        0.0660
     16 C          -6.8088    1.2233   -0.0003 C.ar    1  LIG1        0.0942
     17 C          -5.4065    1.3366   -0.0004 C.ar    1  LIG1        0.0360
     18 C          -4.8408    2.6129   -0.0003 C.ar    1  LIG1       -0.0062
     19 C          -5.6871    3.7231   -0.0003 C.ar    1  LIG1        0.1447
     20 C          -7.0774    3.5076   -0.0004 C.ar    1  LIG1        0.0921
     21 N          -7.6401    2.2834   -0.0003 N.ar    1  LIG1       -0.3454
     22 H          -3.7491    2.7410   -0.0014 H       1  LIG1        0.0662
     23 S          -7.3823    0.0567   -0.0003 S.2     1  LIG1       -0.0321
     24 H          -6.4670   -0.8805   -0.0003 H       1  LIG1        0.1665
     25 O          -5.2095    4.9322   -0.0004 O.3     1  LIG1       -0.4930
     26 C          -3.7804    4.8809   -0.0005 C.3     1  LIG1        0.0789
     27 H          -3.3877    5.8763   -0.0007 H       1  LIG1        0.0660
     28 H          -3.4420    4.3642    0.8733 H       1  LIG1        0.0660
     29 H          -3.4421    4.3639   -0.8740 H       1  LIG1        0.0660
     30 C          -9.2946    4.2834   -0.0212 C.ar    1  LIG1        0.0942
     31 C          -7.9061    4.5092   -0.0003 C.ar    1  LIG1        0.0360
     32 C          -7.4452    5.8268    0.0208 C.ar    1  LIG1       -0.0062
     33 C          -8.3781    6.8652    0.0200 C.ar    1  LIG1        0.1447
     34 C          -9.7464    6.5385   -0.0020 C.ar    1  LIG1        0.0920
     35 N         -10.2086    5.2731   -0.0223 N.ar    1  LIG1       -0.3454
     36 H          -6.3674    6.0423    0.0365 H       1  LIG1        0.0662
     37 S          -9.7721    3.0745   -0.0412 S.2     1  LIG1       -0.0321
     38 H          -8.7842    2.2142   -0.0479 H       1  LIG1        0.1665
     39 O          -7.9996    8.1088    0.0389 O.3     1  LIG1       -0.4930
     40 C          -6.5711    8.1728    0.0458 C.3     1  LIG1        0.0789
     41 H          -6.2600    9.1965    0.0612 H       1  LIG1        0.0660
     42 H          -6.1958    7.6729    0.9143 H       1  LIG1        0.0660
     43 H          -6.1884    7.6970   -0.8328 H       1  LIG1        0.0660
     44 C         -12.0189    7.1333   -0.0254 C.2     1  LIG1        0.1062
     45 C         -10.6531    7.4702   -0.0035 C.2     1  LIG1        0.0356
     46 C         -10.2998    8.8207    0.0166 C.2     1  LIG1       -0.0071
     47 C         -11.3133    9.7805    0.0141 C.2     1  LIG1        0.1364
     48 C         -12.6509    9.3447   -0.0087 C.2     1  LIG1        0.0596
     49 N         -13.0096    8.0461   -0.0281 N.am    1  LIG1       -0.2108
     50 H          -9.2429    9.1223    0.0330 H       1  LIG1        0.0662
     51 H         -13.6296   10.2002   -0.0118 H       1  LIG1        0.0839
     52 S         -12.3975    5.8898   -0.0445 S.2     1  LIG1       -0.0327
     53 H         -11.3434    5.1119   -0.0510 H       1  LIG1        0.1665
     54 O         -11.0362   11.0506    0.0321 O.2     1  LIG1       -0.4938
     55 C          -9.6175   11.2295    0.0387 C.3     1  LIG1        0.0788
     56 H          -9.3899   12.2749    0.0534 H       1  LIG1        0.0660
     57 H          -9.2030   10.7620    0.9074 H       1  LIG1        0.0660
     58 H          -9.1979   10.7854   -0.8397 H       1  LIG1        0.0660
@<TRIPOS>BOND
     1    29    26    1
     2    15    12    1
     3    58    55    1
     4    43    40    1
     5    53    35    1
     6    38    21    1
     7    52    44    2
     8    37    30    2
     9    49    44    1
    10    49    48    2
    11    44    45    1
    12    35    30   ar
    13    35    34   ar
    14    30    31   ar
    15    51    48    1
    16    48    47    1
    17    45    34    2
    18    45    46    1
    19    34    33   ar
    20    22    18    1
    21     7     3    1
    22    13    12    1
    23    27    26    1
    24    26    25    1
    25    26    28    1
    26    12    11    1
    27    12    14    1
    28    17     5    2
    29    17    16   ar
    30    17    18   ar
    31    20    21   ar
    32    20    31    2
    33    20    19   ar
    34    25    19    1
    35    11     4    1
    36     5     4   ar
    37     5     6   ar
    38    16    23    2
    39    16    21   ar
    40    18    19   ar
    41    24     6    1
    42    31    32   ar
    43     4     3   ar
    44     6     1   ar
    45     3     2   ar
    46     2     1   ar
    47     2     8    1
    48     1     9    1
    49     9    10    1
    50    47    46    2
    51    47    54    1
    52    46    50    1
    53    33    32   ar
    54    33    39    1
    55    32    36    1
    56    54    55    1
    57    55    56    1
    58    55    57    1
    59    39    40    1
    60    40    41    1
    61    40    42    1
