@<TRIPOS>MOLECULE
mol_data/noopt/geoms/mol2/6ha12if-12id-13ei-.out
 48 51 0 0 0
SMALL
GASTEIGER

@<TRIPOS>ATOM
      1 C          -4.5775   -2.0270    0.0001 C.ar    1  LIG1        0.1169
      2 C          -3.1706   -2.0270    0.0001 C.ar    1  LIG1       -0.0221
      3 C          -2.5039   -0.8004    0.0001 C.ar    1  LIG1       -0.0564
      4 C          -3.2580    0.3743   -0.0001 C.ar    1  LIG1       -0.0325
      5 C          -4.6612    0.2715   -0.0003 C.ar    1  LIG1        0.1085
      6 N          -5.3207   -0.9034   -0.0001 N.ar    1  LIG1       -0.2293
      7 H          -1.4054   -0.7607   -0.0009 H       1  LIG1        0.0619
      8 H          -2.5135   -3.1487    0.0004 H       1  LIG1        0.0652
      9 N          -5.2431   -3.1437    0.0002 N.pl3   1  LIG1       -0.3431
     10 H          -6.1151   -3.0120   -0.4712 H       1  LIG1        0.1437
     11 H          -4.7125   -3.8481   -0.4712 H       1  LIG1        0.1437
     12 H          -2.6846    1.5410   -0.0003 H       1  LIG1        0.0640
     13 C          -5.4065    1.3366   -0.0004 C.ar    1  LIG1        0.1605
     14 C          -5.1777    2.6969    0.0143 C.ar    1  LIG1        0.0391
     15 C          -6.4770    3.3362    0.0035 C.ar    1  LIG1        0.1694
     16 C          -7.4140    2.3237   -0.0171 C.ar    1  LIG1        0.2123
     17 O          -6.7784    1.0815   -0.0201 O.2     1  LIG1       -0.4461
     18 C          -4.0318    3.3111    0.0342 C.3     1  LIG1       -0.0325
     19 H          -4.1369    4.2459    0.5440 H       1  LIG1        0.0280
     20 H          -3.7039    3.4869   -0.9691 H       1  LIG1        0.0280
     21 H          -3.3115    2.7058    0.5439 H       1  LIG1        0.0280
     22 O          -6.6906    4.6186    0.0120 O.3     1  LIG1       -0.5029
     23 H          -7.6359    4.7860    0.0141 H       1  LIG1        0.2923
     24 C          -8.7125    2.2634   -0.0340 C.ar    1  LIG1        0.1785
     25 C          -9.7395    3.1843   -0.0467 C.ar    1  LIG1        0.0166
     26 C         -10.9744    2.4282   -0.0632 C.ar    1  LIG1        0.1025
     27 C         -10.6199    1.0948   -0.0595 C.ar    1  LIG1        0.1706
     28 O          -9.2305    0.9676   -0.0417 O.2     1  LIG1       -0.4485
     29 C          -9.6457    4.4812   -0.0446 C.3     1  LIG1       -0.0348
     30 H         -10.4913    4.8992    0.4604 H       1  LIG1        0.0279
     31 H          -9.6199    4.8386   -1.0529 H       1  LIG1        0.0279
     32 H          -8.7486    4.7731    0.4603 H       1  LIG1        0.0279
     33 N         -13.2284    3.3793   -0.0918 N.1     1  LIG1       -0.1907
     34 C         -12.1721    2.9336   -0.0784 C.1     1  LIG1        0.1033
     35 C         -11.2633   -0.0347   -0.0685 C.ar    1  LIG1        0.0992
     36 C         -12.5986   -0.2892   -0.0584 C.ar    1  LIG1        0.0558
     37 C         -12.7631   -1.7116   -0.0752 C.ar    1  LIG1       -0.0171
     38 C         -11.5210   -2.2638   -0.0966 C.ar    1  LIG1        0.0064
     39 N         -10.5999   -1.2407   -0.0922 N.ar    1  LIG1       -0.3570
     40 H          -9.6125   -1.3548   -0.1047 H       1  LIG1        0.1655
     41 H         -11.1523   -3.5102   -0.1174 H       1  LIG1        0.0810
     42 C         -13.5485    0.5981   -0.0359 C.1     1  LIG1       -0.0672
     43 C         -14.4261    1.4179   -0.0151 C.1     1  LIG1       -0.1138
     44 H         -15.2079    2.1482    0.0034 H       1  LIG1        0.1232
     45 C         -13.8906   -2.3593   -0.0713 C.3     1  LIG1       -0.0371
     46 H         -13.7635   -3.2937    0.4343 H       1  LIG1        0.0278
     47 H         -14.2026   -2.5385   -1.0790 H       1  LIG1        0.0278
     48 H         -14.6337   -1.7785    0.4342 H       1  LIG1        0.0278
@<TRIPOS>BOND
     1    47    45    1
     2    31    29    1
     3    20    18    1
     4    11     9    1
     5    10     9    1
     6    41    38    1
     7    40    39    1
     8    38    39   ar
     9    38    37   ar
    10    39    35   ar
    11    33    34    3
    12    34    26    1
    13    37    45    1
    14    37    36   ar
    15    45    48    1
    16    45    46    1
    17    35    27    1
    18    35    36   ar
    19    26    27   ar
    20    26    25   ar
    21    27    28   ar
    22    36    42    1
    23    25    29    1
    24    25    24   ar
    25    29    32    1
    26    29    30    1
    27    28    24   ar
    28    42    43    3
    29    24    16    1
    30    17    16   ar
    31    17    13   ar
    32    16    15   ar
    33    43    44    1
    34     7     3    1
    35    13     5    1
    36    13    14   ar
    37    12     4    1
    38     5     6   ar
    39     5     4   ar
    40     6     1   ar
    41     4     3   ar
    42     1     2   ar
    43     1     9    1
    44     3     2   ar
    45     2     8    1
    46    15    22    1
    47    15    14   ar
    48    22    23    1
    49    14    18    1
    50    18    21    1
    51    18    19    1
