@<TRIPOS>MOLECULE
mol_data/noopt/geoms/mol2/6ha12al(100)6fe(220)12lf(120).out
 48 51 0 0 0
SMALL
GASTEIGER

@<TRIPOS>ATOM
      1 C          -4.5775   -2.0270    0.0001 C.ar    1  LIG1        0.1169
      2 C          -3.1706   -2.0270    0.0001 C.ar    1  LIG1       -0.0221
      3 C          -2.5039   -0.8004    0.0001 C.ar    1  LIG1       -0.0564
      4 C          -3.2580    0.3743   -0.0001 C.ar    1  LIG1       -0.0325
      5 C          -4.6612    0.2715   -0.0003 C.ar    1  LIG1        0.1082
      6 N          -5.3207   -0.9034   -0.0001 N.ar    1  LIG1       -0.2294
      7 H          -1.4054   -0.7607   -0.0009 H       1  LIG1        0.0619
      8 H          -2.5135   -3.1487    0.0004 H       1  LIG1        0.0652
      9 N          -5.2431   -3.1437    0.0002 N.pl3   1  LIG1       -0.3431
     10 H          -6.1151   -3.0120   -0.4712 H       1  LIG1        0.1437
     11 H          -4.7125   -3.8481   -0.4712 H       1  LIG1        0.1437
     12 H          -2.6846    1.5410   -0.0003 H       1  LIG1        0.0640
     13 C          -5.4065    1.3366   -0.0004 C.ar    1  LIG1        0.1575
     14 C          -6.1268    2.0329    0.9480 C.ar    1  LIG1        0.0282
     15 C          -6.7412    3.1514    0.2635 C.ar    1  LIG1        0.1664
     16 C          -6.3554    3.0643   -1.0583 C.ar    1  LIG1        0.1822
     17 O          -5.5320    1.9536   -1.2459 O.2     1  LIG1       -0.4493
     18 H          -6.2474    1.7609    2.2134 H       1  LIG1        0.0693
     19 O          -7.5044    4.0492    0.8127 O.3     1  LIG1       -0.4913
     20 C          -6.7576    5.2518    1.0142 C.3     1  LIG1        0.0790
     21 H          -7.3861    5.9906    1.4661 H       1  LIG1        0.0660
     22 H          -5.9249    5.0514    1.6557 H       1  LIG1        0.0660
     23 H          -6.4028    5.6136    0.0718 H       1  LIG1        0.0660
     24 C          -6.0066    5.0353   -2.2878 C.ar    1  LIG1        0.2241
     25 C          -6.5763    3.7580   -2.1353 C.ar    1  LIG1        0.0834
     26 C          -7.3786    3.2589   -3.1631 C.ar    1  LIG1       -0.0282
     27 C          -7.5831    4.0452   -4.2982 C.ar    1  LIG1        0.0547
     28 C          -6.9704    5.3104   -4.3579 C.ar    1  LIG1        0.1289
     29 N          -6.1933    5.8074   -3.3758 N.ar    1  LIG1       -0.2079
     30 H          -7.8415    2.2654   -3.0792 H       1  LIG1        0.0639
     31 O          -5.2523    5.5430   -1.3585 O.3     1  LIG1       -0.4919
     32 H          -5.5718    6.4188   -1.1295 H       1  LIG1        0.2938
     33 C          -8.3217    3.6257   -5.2822 C.1     1  LIG1       -0.0674
     34 C          -9.0042    3.2380   -6.1915 C.1     1  LIG1       -0.1138
     35 H          -9.6122    2.8927   -7.0015 H       1  LIG1        0.1232
     36 C          -7.1308    6.0792   -5.3938 C.ar    1  LIG1        0.1994
     37 C          -7.9048    7.1822   -5.6894 C.ar    1  LIG1        0.2092
     38 C          -7.5905    7.5563   -7.0525 C.ar    1  LIG1        0.1979
     39 C          -6.6447    6.6568   -7.4997 C.ar    1  LIG1        0.1378
     40 O          -6.3449    5.7363   -6.4949 O.2     1  LIG1       -0.4538
     41 H          -5.9894    6.4759   -8.6077 H       1  LIG1        0.1069
     42 O          -8.7568    7.7868   -4.9156 O.3     1  LIG1       -0.4884
     43 C          -8.2894    9.1081   -4.6316 C.3     1  LIG1        0.0791
     44 H          -8.9909    9.6055   -3.9949 H       1  LIG1        0.0660
     45 H          -7.3398    9.0529   -4.1415 H       1  LIG1        0.0660
     46 H          -8.1877    9.6547   -5.5458 H       1  LIG1        0.0660
     47 O          -8.1132    8.5521   -7.7046 O.3     1  LIG1       -0.5012
     48 H          -9.0433    8.3769   -7.8654 H       1  LIG1        0.2924
@<TRIPOS>BOND
     1    41    39    1
     2    48    47    1
     3    47    38    1
     4    39    38   ar
     5    39    40   ar
     6    38    37   ar
     7    35    34    1
     8    40    36   ar
     9    34    33    3
    10    37    36   ar
    11    37    42    1
    12    46    43    1
    13    36    28    1
    14    33    27    1
    15    42    43    1
    16    43    45    1
    17    43    44    1
    18    28    27   ar
    19    28    29   ar
    20    27    26   ar
    21    29    24   ar
    22    26    30    1
    23    26    25   ar
    24    24    25   ar
    25    24    31    1
    26    25    16    1
    27    31    32    1
    28    17    16   ar
    29    17    13   ar
    30    16    15   ar
    31    11     9    1
    32    10     9    1
    33     7     3    1
    34    13     5    1
    35    13    14   ar
    36     5     4   ar
    37     5     6   ar
    38    12     4    1
    39     4     3   ar
    40     6     1   ar
    41     1     2   ar
    42     1     9    1
    43     2     3   ar
    44     2     8    1
    45    23    20    1
    46    15    19    1
    47    15    14   ar
    48    19    20    1
    49    14    18    1
    50    20    21    1
    51    20    22    1
