@<TRIPOS>MOLECULE
mol_data/noopt/geoms/mol2/6ha12hd(50)13ii(30)6dl(50).out
 51 54 0 0 0
SMALL
GASTEIGER

@<TRIPOS>ATOM
      1 C          -4.5775   -2.0270    0.0001 C.ar    1  LIG1        0.1169
      2 C          -3.1706   -2.0270    0.0001 C.ar    1  LIG1       -0.0221
      3 C          -2.5039   -0.8004    0.0001 C.ar    1  LIG1       -0.0564
      4 C          -3.2580    0.3743   -0.0001 C.ar    1  LIG1       -0.0325
      5 C          -4.6612    0.2715   -0.0003 C.ar    1  LIG1        0.1100
      6 N          -5.3207   -0.9034   -0.0001 N.ar    1  LIG1       -0.2293
      7 H          -1.4054   -0.7607   -0.0009 H       1  LIG1        0.0619
      8 H          -2.5135   -3.1487    0.0004 H       1  LIG1        0.0652
      9 N          -5.2431   -3.1437    0.0002 N.pl3   1  LIG1       -0.3431
     10 H          -6.1151   -3.0120   -0.4712 H       1  LIG1        0.1437
     11 H          -4.7125   -3.8481   -0.4712 H       1  LIG1        0.1437
     12 H          -2.6846    1.5410   -0.0003 H       1  LIG1        0.0640
     13 C          -5.4065    1.3366   -0.0004 C.ar    1  LIG1        0.1757
     14 C          -5.4220    2.5261    0.6982 C.ar    1  LIG1        0.0908
     15 C          -6.5450    3.2886    0.1939 C.ar    1  LIG1        0.1201
     16 C          -7.1415    2.5143   -0.7798 C.ar    1  LIG1        0.1713
     17 O          -6.4575    1.3060   -0.9181 O.2     1  LIG1       -0.4486
     18 N          -4.6023    2.9120    1.6305 N.pl3   1  LIG1       -0.3540
     19 H          -3.7385    2.4163    1.5410 H       1  LIG1        0.1425
     20 H          -4.4341    3.8937    1.5410 H       1  LIG1        0.1425
     21 N          -7.2132    5.5157    0.9552 N.1     1  LIG1       -0.1907
     22 C          -6.9000    4.4720    0.5985 C.1     1  LIG1        0.1049
     23 C          -8.1626    2.6481   -1.5732 C.ar    1  LIG1        0.0871
     24 C          -9.0300    3.6833   -1.7273 C.ar    1  LIG1       -0.0186
     25 C          -9.9707    3.3061   -2.7389 C.ar    1  LIG1       -0.0215
     26 C          -9.6357    2.0577   -3.1598 C.ar    1  LIG1        0.0530
     27 N          -8.5296    1.6508   -2.4484 N.ar    1  LIG1       -0.3512
     28 H          -8.0686    0.7761   -2.5508 H       1  LIG1        0.1660
     29 C          -9.0075    4.8071   -1.0735 C.3     1  LIG1       -0.0373
     30 H          -9.8798    4.8793   -0.4581 H       1  LIG1        0.0278
     31 H          -8.9912    5.6225   -1.7661 H       1  LIG1        0.0278
     32 H          -8.1329    4.8442   -0.4582 H       1  LIG1        0.0278
     33 C         -10.9632    4.0229   -3.1772 C.3     1  LIG1       -0.0374
     34 H         -11.8848    3.6108   -2.8224 H       1  LIG1        0.0278
     35 H         -10.9599    4.0204   -4.2472 H       1  LIG1        0.0278
     36 H         -10.8617    5.0273   -2.8225 H       1  LIG1        0.0278
     37 C          -9.4767    0.9417   -5.2208 C.ar    1  LIG1        0.1493
     38 C         -10.1850    1.2944   -4.0574 C.ar    1  LIG1        0.0379
     39 C         -11.4828    0.8067   -3.8933 C.ar    1  LIG1       -0.0066
     40 C         -12.0247   -0.0093   -4.8879 C.ar    1  LIG1        0.1388
     41 C         -11.2378   -0.3060   -6.0158 C.ar    1  LIG1        0.0707
     42 N          -9.9841    0.1557   -6.1901 N.ar    1  LIG1       -0.2403
     43 H         -12.0672    1.0617   -2.9980 H       1  LIG1        0.0662
     44 H         -11.6981   -1.0614   -6.9684 H       1  LIG1        0.0867
     45 N          -7.1975    1.7494   -5.5930 N.1     1  LIG1       -0.1893
     46 C          -8.2657    1.3709   -5.4185 C.1     1  LIG1        0.1198
     47 O         -13.2287   -0.4883   -4.7821 O.3     1  LIG1       -0.4936
     48 C         -14.1690    0.5884   -4.7434 C.3     1  LIG1        0.0789
     49 H         -15.1597    0.1938   -4.6565 H       1  LIG1        0.0660
     50 H         -13.9595    1.2148   -3.9015 H       1  LIG1        0.0660
     51 H         -14.0913    1.1624   -5.6430 H       1  LIG1        0.0660
@<TRIPOS>BOND
     1    44    41    1
     2    42    41   ar
     3    42    37   ar
     4    41    40   ar
     5    51    48    1
     6    45    46    3
     7    46    37    1
     8    37    38   ar
     9    40    47    1
    10    40    39   ar
    11    47    48    1
    12    48    49    1
    13    48    50    1
    14    35    33    1
    15    38    39   ar
    16    38    26    1
    17    39    43    1
    18    33    36    1
    19    33    34    1
    20    33    25    1
    21    26    25   ar
    22    26    27   ar
    23    25    24   ar
    24    28    27    1
    25    27    23   ar
    26    31    29    1
    27    24    23   ar
    28    24    29    1
    29    23    16    1
    30    29    32    1
    31    29    30    1
    32    17    16   ar
    33    17    13   ar
    34    16    15   ar
    35    11     9    1
    36    10     9    1
    37     7     3    1
    38    13     5    1
    39    13    14   ar
    40     5     6   ar
    41     5     4   ar
    42    12     4    1
    43     6     1   ar
    44     4     3   ar
    45     2     3   ar
    46     2     1   ar
    47     2     8    1
    48     1     9    1
    49    15    22    1
    50    15    14   ar
    51    22    21    3
    52    14    18    1
    53    20    18    1
    54    19    18    1
