@<TRIPOS>MOLECULE
mol_data/noopt/geoms/mol2/6ha12fl13eh13fd-6ee-12fd-6lf6ef-.out
 95 102 0 0 0
SMALL
GASTEIGER

@<TRIPOS>ATOM
      1 C          -4.5775   -2.0270    0.0001 C.ar    1  LIG1        0.1169
      2 C          -3.1706   -2.0270    0.0001 C.ar    1  LIG1       -0.0221
      3 C          -2.5039   -0.8004    0.0001 C.ar    1  LIG1       -0.0564
      4 C          -3.2580    0.3743   -0.0001 C.ar    1  LIG1       -0.0324
      5 C          -4.6612    0.2715   -0.0003 C.ar    1  LIG1        0.1119
      6 N          -5.3207   -0.9034   -0.0001 N.ar    1  LIG1       -0.2292
      7 H          -1.4054   -0.7607   -0.0009 H       1  LIG1        0.0619
      8 H          -2.5135   -3.1487    0.0004 H       1  LIG1        0.0652
      9 N          -5.2431   -3.1437    0.0002 N.pl3   1  LIG1       -0.3431
     10 H          -6.1151   -3.0120   -0.4712 H       1  LIG1        0.1437
     11 H          -4.7125   -3.8481   -0.4712 H       1  LIG1        0.1437
     12 H          -2.6846    1.5410   -0.0003 H       1  LIG1        0.0640
     13 C          -5.4065    1.3366   -0.0004 C.ar    1  LIG1        0.1989
     14 C          -5.1776    2.6970   -0.0005 C.ar    1  LIG1        0.2076
     15 C          -6.4770    3.3362   -0.0006 C.ar    1  LIG1        0.2099
     16 C          -7.4141    2.3236   -0.0007 C.ar    1  LIG1        0.1983
     17 O          -6.7786    1.0814   -0.0006 O.2     1  LIG1       -0.4442
     18 O          -4.0318    3.3111   -0.0004 O.3     1  LIG1       -0.5008
     19 H          -4.1768    4.2601   -0.0003 H       1  LIG1        0.2924
     20 O          -6.6905    4.6186   -0.0007 O.3     1  LIG1       -0.4884
     21 C          -5.4392    5.3108   -0.0008 C.3     1  LIG1        0.0791
     22 H          -5.6153    6.3662   -0.0010 H       1  LIG1        0.0660
     23 H          -4.8829    5.0423    0.8730 H       1  LIG1        0.0660
     24 H          -4.8829    5.0419   -0.8743 H       1  LIG1        0.0660
     25 C          -8.7127    2.2633   -0.0007 C.ar    1  LIG1        0.1038
     26 C          -9.6417    3.2556    0.0155 C.ar    1  LIG1        0.0743
     27 C         -10.9317    2.6340    0.0077 C.ar    1  LIG1        0.0681
     28 C         -10.7343    1.2891   -0.0146 C.ar    1  LIG1        0.0892
     29 N          -9.3772    1.0578   -0.0194 N.ar    1  LIG1       -0.3480
     30 H          -8.9457    0.1625   -0.0346 H       1  LIG1        0.1661
     31 C          -9.3996    4.5327    0.0359 C.1     1  LIG1       -0.0656
     32 C          -9.1760    5.7128    0.0548 C.1     1  LIG1       -0.1138
     33 H          -8.9768    6.7639    0.0716 H       1  LIG1        0.1232
     34 N         -12.0816    3.2403    0.0194 N.pl3   1  LIG1       -0.3553
     35 H         -11.9993    4.1200   -0.4490 H       1  LIG1        0.1424
     36 H         -12.7610    2.6756   -0.4490 H       1  LIG1        0.1424
     37 C         -11.5905    0.3110   -0.0292 C.ar    1  LIG1        0.1085
     38 C         -12.9498    0.3286   -0.0228 C.ar    1  LIG1        0.1616
     39 C         -13.3951   -1.0322   -0.0452 C.ar    1  LIG1        0.1190
     40 C         -12.2885   -1.8215   -0.0661 C.ar    1  LIG1        0.0709
     41 N         -11.1814   -1.0032   -0.0559 N.ar    1  LIG1       -0.3489
     42 H         -10.2368   -1.3122   -0.0668 H       1  LIG1        0.1661
     43 O         -13.7032    1.3878    0.0010 O.3     1  LIG1       -0.5034
     44 H         -14.6263    1.1243    0.0068 H       1  LIG1        0.2923
     45 N         -15.7174   -1.8021   -0.0468 N.1     1  LIG1       -0.1907
     46 C         -14.6291   -1.4413   -0.0460 C.1     1  LIG1        0.1050
     47 C         -10.9056   -3.7195   -0.1251 C.ar    1  LIG1        0.1231
     48 C         -12.1762   -3.1164   -0.0907 C.ar    1  LIG1        0.0347
     49 C         -13.3045   -3.9385   -0.0833 C.ar    1  LIG1       -0.0323
     50 C         -13.1274   -5.3229   -0.1105 C.ar    1  LIG1        0.0545
     51 C         -11.8160   -5.8316   -0.1443 C.ar    1  LIG1        0.1264
     52 N         -10.7164   -5.0530   -0.1517 N.ar    1  LIG1       -0.2333
     53 H         -14.3136   -3.5035   -0.0577 H       1  LIG1        0.0638
     54 C          -9.8255   -2.9961   -0.1331 C.1     1  LIG1       -0.0491
     55 C          -8.8274   -2.3278   -0.1406 C.1     1  LIG1       -0.1124
     56 H          -7.9384   -1.7324   -0.1472 H       1  LIG1        0.1232
     57 C         -14.1457   -6.1310   -0.1052 C.1     1  LIG1       -0.0674
     58 C         -15.0867   -6.8776   -0.1003 C.1     1  LIG1       -0.1138
     59 H         -15.9248   -7.5427   -0.0959 H       1  LIG1        0.1232
     60 C         -11.5998   -7.1132   -0.1705 C.ar    1  LIG1        0.1975
     61 C         -12.3903   -8.2436   -0.1902 C.ar    1  LIG1        0.1826
     62 C         -11.4909   -9.3783   -0.2157 C.ar    1  LIG1        0.1396
     63 C         -10.2099   -8.8657   -0.2100 C.ar    1  LIG1        0.1620
     64 O         -10.2510   -7.4712   -0.1823 O.2     1  LIG1       -0.4479
     65 O         -13.6888   -8.3067   -0.1870 O.3     1  LIG1       -0.5023
     66 H         -13.9649   -9.2262   -0.1863 H       1  LIG1        0.2923
     67 N         -12.1635  -11.7302   -0.2601 N.1     1  LIG1       -0.1906
     68 C         -11.8483  -10.6279   -0.2393 C.1     1  LIG1        0.1067
     69 C          -7.8860   -8.5236   -0.2314 C.ar    1  LIG1        0.2262
     70 C          -9.0111   -9.3682   -0.2239 C.ar    1  LIG1        0.0836
     71 C          -8.8080  -10.7494   -0.2315 C.ar    1  LIG1       -0.0022
     72 C          -7.4997  -11.2362   -0.2464 C.ar    1  LIG1        0.1437
     73 C          -6.4393  -10.3115   -0.2531 C.ar    1  LIG1        0.1188
     74 N          -6.6171   -8.9760   -0.2458 N.ar    1  LIG1       -0.2085
     75 H          -9.6626  -11.4407   -0.2270 H       1  LIG1        0.0663
     76 O          -8.0240   -7.2309   -0.2247 O.3     1  LIG1       -0.4792
     77 C          -6.7343   -6.6132   -0.2223 C.3     1  LIG1        0.0804
     78 H          -6.8484   -5.5493   -0.2170 H       1  LIG1        0.0660
     79 H          -6.1943   -6.9184    0.6496 H       1  LIG1        0.0660
     80 H          -6.1952   -6.9097   -1.0977 H       1  LIG1        0.0660
     81 O          -7.2579  -12.5135   -0.2541 O.3     1  LIG1       -0.5046
     82 H          -6.3092  -12.6600   -0.2560 H       1  LIG1        0.2922
     83 C          -4.1507   -9.7835   -0.2953 C.ar    1  LIG1        0.1226
     84 C          -5.2038  -10.7159   -0.2668 C.ar    1  LIG1        0.0413
     85 C          -4.8898  -12.0761   -0.2534 C.ar    1  LIG1       -0.0067
     86 C          -3.5467  -12.4559   -0.2690 C.ar    1  LIG1        0.1356
     87 C          -2.5644  -11.4490   -0.2977 C.ar    1  LIG1        0.0704
     88 N          -2.8495  -10.1322   -0.3107 N.ar    1  LIG1       -0.2424
     89 H          -5.6858  -12.8339   -0.2322 H       1  LIG1        0.0662
     90 H          -1.3005  -11.7525   -0.3130 H       1  LIG1        0.0867
     91 C          -4.3927   -8.5063   -0.3086 C.1     1  LIG1       -0.0491
     92 C          -4.6162   -7.3261   -0.3209 C.1     1  LIG1       -0.1124
     93 H          -4.8154   -6.2749   -0.3318 H       1  LIG1        0.1232
     94 O          -3.2025  -13.7095   -0.2577 O.3     1  LIG1       -0.5052
     95 H          -2.2450  -13.7789   -0.2550 H       1  LIG1        0.2922
@<TRIPOS>BOND
     1    80    77    1
     2    24    21    1
     3    11     9    1
     4    10     9    1
     5    36    34    1
     6    35    34    1
     7    93    92    1
     8    92    91    3
     9    90    87    1
    10    88    87   ar
    11    88    83   ar
    12    91    83    1
    13    87    86   ar
    14    83    84   ar
    15    86    94    1
    16    86    85   ar
    17    84    85   ar
    18    84    73    1
    19    67    68    3
    20    94    95    1
    21    82    81    1
    22    81    72    1
    23    85    89    1
    24    73    72   ar
    25    73    74   ar
    26    72    71   ar
    27    74    69   ar
    28    68    62    1
    29    71    75    1
    30    71    70   ar
    31    69    76    1
    32    69    70   ar
    33    76    77    1
    34    70    63    1
    35    77    78    1
    36    77    79    1
    37    62    63   ar
    38    62    61   ar
    39    63    64   ar
    40    61    65    1
    41    61    60   ar
    42    65    66    1
    43    64    60   ar
    44    60    51    1
    45    52    51   ar
    46    52    47   ar
    47    56    55    1
    48    51    50   ar
    49    55    54    3
    50    54    47    1
    51    47    48   ar
    52    50    57    1
    53    50    49   ar
    54    57    58    3
    55    58    59    1
    56    48    49   ar
    57    48    40    1
    58    49    53    1
    59    42    41    1
    60    40    41   ar
    61    40    39   ar
    62    41    37   ar
    63    45    46    3
    64    46    39    1
    65    39    38   ar
    66    30    29    1
    67    37    38   ar
    68    37    28    1
    69    38    43    1
    70    29    28   ar
    71    29    25   ar
    72    28    27   ar
    73    22    21    1
    74     7     3    1
    75    21    20    1
    76    21    23    1
    77    25    16    1
    78    25    26   ar
    79    20    15    1
    80    16    17   ar
    81    16    15   ar
    82    17    13   ar
    83    15    14   ar
    84    14    13   ar
    85    14    18    1
    86    13     5    1
    87    18    19    1
    88     5     4   ar
    89     5     6   ar
    90    12     4    1
    91     4     3   ar
    92     6     1   ar
    93     2     3   ar
    94     2     1   ar
    95     2     8    1
    96     1     9    1
    97    43    44    1
    98    27    26   ar
    99    27    34    1
   100    26    31    1
   101    31    32    3
   102    32    33    1
