@<TRIPOS>MOLECULE
mol_data/noopt/geoms/mol2/6ha13eh-6fd-13fe13li.out
 62 65 0 0 0
SMALL
GASTEIGER

@<TRIPOS>ATOM
      1 C          -4.5775   -2.0270    0.0001 C.ar    1  LIG1        0.1169
      2 C          -3.1706   -2.0270    0.0001 C.ar    1  LIG1       -0.0221
      3 C          -2.5039   -0.8004    0.0001 C.ar    1  LIG1       -0.0565
      4 C          -3.2580    0.3743   -0.0001 C.ar    1  LIG1       -0.0341
      5 C          -4.6612    0.2715   -0.0003 C.ar    1  LIG1        0.0905
      6 N          -5.3207   -0.9034   -0.0001 N.ar    1  LIG1       -0.2309
      7 H          -1.4054   -0.7607   -0.0009 H       1  LIG1        0.0619
      8 H          -2.5135   -3.1487    0.0004 H       1  LIG1        0.0652
      9 N          -5.2431   -3.1437    0.0002 N.pl3   1  LIG1       -0.3431
     10 H          -6.1151   -3.0120   -0.4712 H       1  LIG1        0.1437
     11 H          -4.7125   -3.8481   -0.4712 H       1  LIG1        0.1437
     12 H          -2.6846    1.5410   -0.0003 H       1  LIG1        0.0639
     13 C          -5.4065    1.3366   -0.0004 C.ar    1  LIG1        0.0829
     14 C          -5.0647    2.6523    0.0158 C.ar    1  LIG1        0.0726
     15 C          -6.2798    3.4100    0.0080 C.ar    1  LIG1        0.0666
     16 C          -7.3107    2.5241   -0.0144 C.ar    1  LIG1        0.0743
     17 N          -6.7805    1.2536   -0.0191 N.ar    1  LIG1       -0.3504
     18 H          -7.3063    0.4102   -0.0343 H       1  LIG1        0.1660
     19 C          -3.8561    3.1306    0.0362 C.1     1  LIG1       -0.0656
     20 C          -2.7393    3.5726    0.0551 C.1     1  LIG1       -0.1138
     21 H          -1.7446    3.9664    0.0719 H       1  LIG1        0.1232
     22 N          -6.3823    4.7059    0.0196 N.pl3   1  LIG1       -0.3554
     23 H          -5.5949    5.1067   -0.4488 H       1  LIG1        0.1424
     24 H          -7.2228    4.9780   -0.4488 H       1  LIG1        0.1424
     25 C          -9.4846    1.6350   -0.0579 C.ar    1  LIG1        0.2224
     26 C          -8.5951    2.7246   -0.0290 C.ar    1  LIG1        0.0627
     27 C          -9.1237    4.0166   -0.0160 C.ar    1  LIG1       -0.0279
     28 C         -10.5104    4.1755   -0.0326 C.ar    1  LIG1        0.0801
     29 C         -11.3180    3.0238   -0.0616 C.ar    1  LIG1        0.1118
     30 N         -10.8249    1.7700   -0.0742 N.ar    1  LIG1       -0.2096
     31 H          -8.4598    4.8925    0.0056 H       1  LIG1        0.0639
     32 O          -9.0404    0.4132   -0.0708 O.3     1  LIG1       -0.4919
     33 H          -8.0805    0.4213   -0.0740 H       1  LIG1        0.2937
     34 N         -11.5289    6.3999   -0.0122 N.1     1  LIG1       -0.1908
     35 C         -11.0516    5.3575   -0.0217 C.1     1  LIG1        0.1014
     36 C         -12.6143    3.1202   -0.0777 C.ar    1  LIG1        0.1094
     37 C         -13.4173    4.2171   -0.0725 C.ar    1  LIG1        0.1521
     38 C         -14.7725    3.7552   -0.0965 C.ar    1  LIG1        0.0567
     39 C         -14.7381    2.3963   -0.1172 C.ar    1  LIG1        0.0787
     40 N         -13.4188    2.0034   -0.1053 N.ar    1  LIG1       -0.3483
     41 H         -13.0979    1.0626   -0.1157 H       1  LIG1        0.1661
     42 O         -13.0236    5.4559   -0.0483 O.3     1  LIG1       -0.5040
     43 H         -13.7890    6.0352   -0.0424 H       1  LIG1        0.2923
     44 C         -15.8411    4.4955   -0.0987 C.3     1  LIG1       -0.0163
     45 C         -16.8285    5.1795   -0.1008 C.3     1  LIG1       -0.0273
     46 H         -17.7081    5.7888   -0.1026 H       1  LIG1        0.0312
     47 C         -15.7055    1.5283   -0.1429 C.ar    1  LIG1        0.1111
     48 C         -17.0527    1.7094   -0.1607 C.ar    1  LIG1        0.2083
     49 C         -17.6583    0.4120   -0.1854 C.ar    1  LIG1        0.0142
     50 C         -16.6546   -0.5048   -0.1834 C.ar    1  LIG1        0.0089
     51 N         -15.4574    0.1743   -0.1570 N.ar    1  LIG1       -0.3562
     52 H         -14.5568   -0.2463   -0.1498 H       1  LIG1        0.1655
     53 H         -16.6987   -1.8040   -0.2007 H       1  LIG1        0.0811
     54 O         -17.6733    2.8517   -0.1547 O.3     1  LIG1       -0.2853
     55 C         -16.7167    3.9146   -0.1525 C.3     1  LIG1       -0.0582
     56 H         -17.2279    4.8546   -0.1477 H       1  LIG1        0.0236
     57 H         -16.1013    3.8389    0.7196 H       1  LIG1        0.0236
     58 H         -16.1050    3.8458   -1.0277 H       1  LIG1        0.0236
     59 C         -18.9327    0.1543   -0.2065 C.3     1  LIG1       -0.0346
     60 H         -19.1171   -0.7743    0.2921 H       1  LIG1        0.0279
     61 H         -19.2662    0.0868   -1.2210 H       1  LIG1        0.0279
     62 H         -19.4633    0.9384    0.2921 H       1  LIG1        0.0279
@<TRIPOS>BOND
     1    61    59    1
     2    58    55    1
     3    11     9    1
     4    10     9    1
     5    24    22    1
     6    23    22    1
     7    59    49    1
     8    59    62    1
     9    59    60    1
    10    53    50    1
    11    49    50   ar
    12    49    48   ar
    13    50    51   ar
    14    48    54    1
    15    48    47   ar
    16    51    52    1
    17    51    47   ar
    18    55    56    1
    19    55    44    1
    20    55    57    1
    21    47    39    1
    22    39    40   ar
    23    39    38   ar
    24    41    40    1
    25    40    36   ar
    26    46    45    1
    27    45    44    1
    28    38    37   ar
    29    36    37   ar
    30    36    29    1
    31    30    29   ar
    32    30    25   ar
    33    33    32    1
    34    37    42    1
    35    32    25    1
    36    29    28   ar
    37    25    26   ar
    38    42    43    1
    39    18    17    1
    40    28    35    1
    41    28    27   ar
    42    26    27   ar
    43    26    16    1
    44    35    34    3
    45    17    16   ar
    46    17    13   ar
    47    27    31    1
    48    16    15   ar
    49     7     3    1
    50    13     5    1
    51    13    14   ar
    52    12     4    1
    53     5     6   ar
    54     5     4   ar
    55     6     1   ar
    56     4     3   ar
    57     1     2   ar
    58     1     9    1
    59     3     2   ar
    60     2     8    1
    61    15    14   ar
    62    15    22    1
    63    14    19    1
    64    19    20    3
    65    20    21    1
