@<TRIPOS>MOLECULE
mol_data/noopt/geoms/mol2/6ha4hi(350)6hd(60)13la(230).out
 52 55 0 0 0
SMALL
GASTEIGER

@<TRIPOS>ATOM
      1 C          -4.5775   -2.0270    0.0001 C.ar    1  LIG1        0.1168
      2 C          -3.1706   -2.0270    0.0001 C.ar    1  LIG1       -0.0221
      3 C          -2.5039   -0.8004    0.0001 C.ar    1  LIG1       -0.0565
      4 C          -3.2580    0.3743   -0.0001 C.ar    1  LIG1       -0.0355
      5 C          -4.6612    0.2715   -0.0003 C.ar    1  LIG1        0.0748
      6 N          -5.3207   -0.9034   -0.0001 N.ar    1  LIG1       -0.2324
      7 H          -1.4054   -0.7607   -0.0009 H       1  LIG1        0.0619
      8 H          -2.5135   -3.1487    0.0004 H       1  LIG1        0.0652
      9 N          -5.2431   -3.1437    0.0002 N.pl3   1  LIG1       -0.3431
     10 H          -6.1151   -3.0120   -0.4712 H       1  LIG1        0.1437
     11 H          -4.7125   -3.8481   -0.4712 H       1  LIG1        0.1437
     12 H          -2.6846    1.5410   -0.0003 H       1  LIG1        0.0639
     13 C          -4.8227    2.6024   -0.2120 C.ar    1  LIG1        0.0344
     14 C          -5.6726    3.7253   -0.2013 C.ar    1  LIG1       -0.0323
     15 C          -5.4065    1.3366   -0.0004 C.ar    1  LIG1        0.0213
     16 C          -7.0435    3.5959    0.0099 C.ar    1  LIG1       -0.0099
     17 H          -5.2429    4.7115   -0.3623 H       1  LIG1        0.0642
     18 C          -6.7750    1.2068    0.2105 C.ar    1  LIG1       -0.0473
     19 C          -7.6028    2.3343    0.2171 C.ar    1  LIG1       -0.0419
     20 H          -7.2012    0.2199    0.3714 H       1  LIG1        0.0627
     21 N          -3.5518    2.7864   -0.4145 N.pl3   1  LIG1       -0.3574
     22 H          -3.1817    2.0150   -0.9320 H       1  LIG1        0.1423
     23 H          -3.4157    3.6311   -0.9321 H       1  LIG1        0.1423
     24 C          -8.8816    2.2069    0.4150 C.3     1  LIG1       -0.0391
     25 H          -9.0694    1.3102    0.9678 H       1  LIG1        0.0278
     26 H          -9.3851    2.1566   -0.5279 H       1  LIG1        0.0278
     27 H          -9.2426    3.0489    0.9677 H       1  LIG1        0.0278
     28 C          -8.7080    4.8820   -1.0358 C.ar    1  LIG1        0.1247
     29 C          -7.7987    4.6540    0.0133 C.ar    1  LIG1        0.0232
     30 C          -7.7297    5.5863    1.0501 C.ar    1  LIG1       -0.0312
     31 C          -8.5633    6.7050    1.0045 C.ar    1  LIG1        0.0799
     32 C          -9.4397    6.8454   -0.0872 C.ar    1  LIG1        0.1101
     33 N          -9.5195    5.9556   -1.0958 N.ar    1  LIG1       -0.2289
     34 H          -7.0307    5.4424    1.8862 H       1  LIG1        0.0638
     35 N          -8.8088    4.0427   -2.0234 N.pl3   1  LIG1       -0.3426
     36 H          -9.6026    4.2805   -2.5832 H       1  LIG1        0.1437
     37 H          -7.9813    4.0856   -2.5832 H       1  LIG1        0.1437
     38 N          -8.5132    8.3927    2.7751 N.1     1  LIG1       -0.1908
     39 C          -8.5367    7.6018    1.9453 C.1     1  LIG1        0.1014
     40 C         -10.2354    7.8697   -0.1744 C.ar    1  LIG1        0.1085
     41 C         -11.2947    8.0962   -0.9958 C.ar    1  LIG1        0.1468
     42 C         -11.8186    9.3888   -0.6714 C.ar    1  LIG1       -0.0019
     43 C         -11.0576    9.8946    0.3352 C.ar    1  LIG1        0.0058
     44 N         -10.0869    8.9680    0.6422 N.ar    1  LIG1       -0.3565
     45 H          -9.3899    9.0747    1.3427 H       1  LIG1        0.1655
     46 H         -11.1381   11.0288    0.9654 H       1  LIG1        0.0808
     47 O         -11.7451    7.2866   -1.9078 O.3     1  LIG1       -0.4929
     48 C         -13.0884    7.6449   -2.2427 C.3     1  LIG1        0.0789
     49 H         -13.4586    6.9784   -2.9935 H       1  LIG1        0.0660
     50 H         -13.7039    7.5764   -1.3701 H       1  LIG1        0.0660
     51 H         -13.1078    8.6478   -2.6151 H       1  LIG1        0.0660
     52 H         -12.8346    9.9738   -1.2331 H       1  LIG1        0.0669
@<TRIPOS>BOND
     1    49    48    1
     2    51    48    1
     3    37    35    1
     4    36    35    1
     5    48    47    1
     6    48    50    1
     7    35    28    1
     8    47    41    1
     9    52    42    1
    10    33    28   ar
    11    33    32   ar
    12    28    29   ar
    13    41    42   ar
    14    41    40   ar
    15    23    21    1
    16    22    21    1
    17    42    43   ar
    18    26    24    1
    19    11     9    1
    20    10     9    1
    21    21    13    1
    22    17    14    1
    23    13    14   ar
    24    13    15   ar
    25    14    16   ar
    26    40    32    1
    27    40    44   ar
    28    32    31   ar
    29     7     3    1
    30    15     5    1
    31    15    18   ar
    32    12     4    1
    33     5     6   ar
    34     5     4   ar
    35     6     1   ar
    36     4     3   ar
    37     1     2   ar
    38     1     9    1
    39     2     3   ar
    40     2     8    1
    41    16    29    1
    42    16    19   ar
    43    29    30   ar
    44    18    19   ar
    45    18    20    1
    46    19    24    1
    47    43    44   ar
    48    43    46    1
    49    24    27    1
    50    24    25    1
    51    44    45    1
    52    31    30   ar
    53    31    39    1
    54    30    34    1
    55    39    38    3
