@<TRIPOS>MOLECULE
mol_data/noopt/geoms/mol2/6ha4il(110)6lf13di(260).out
 56 59 0 0 0
SMALL
GASTEIGER

@<TRIPOS>ATOM
      1 C          -4.5775   -2.0270    0.0001 C.ar    1  LIG1        0.1168
      2 C          -3.1706   -2.0270    0.0001 C.ar    1  LIG1       -0.0221
      3 C          -2.5039   -0.8004    0.0001 C.ar    1  LIG1       -0.0565
      4 C          -3.2580    0.3743   -0.0001 C.ar    1  LIG1       -0.0356
      5 C          -4.6612    0.2715   -0.0003 C.ar    1  LIG1        0.0734
      6 N          -5.3207   -0.9034   -0.0001 N.ar    1  LIG1       -0.2324
      7 H          -1.4054   -0.7607   -0.0009 H       1  LIG1        0.0619
      8 H          -2.5135   -3.1487    0.0004 H       1  LIG1        0.0652
      9 N          -5.2431   -3.1437    0.0002 N.pl3   1  LIG1       -0.3431
     10 H          -6.1151   -3.0120   -0.4712 H       1  LIG1        0.1437
     11 H          -4.7125   -3.8481   -0.4712 H       1  LIG1        0.1437
     12 H          -2.6846    1.5410   -0.0003 H       1  LIG1        0.0639
     13 C          -6.1524    1.6721    1.1480 C.ar    1  LIG1       -0.0405
     14 C          -6.9454    2.8348    1.0970 C.ar    1  LIG1       -0.0468
     15 C          -5.4065    1.3366   -0.0004 C.ar    1  LIG1        0.0068
     16 C          -6.9945    3.6301   -0.0457 C.ar    1  LIG1        0.0293
     17 H          -7.5291    3.1120    1.9720 H       1  LIG1        0.0628
     18 C          -5.4552    2.1302   -1.1414 C.ar    1  LIG1       -0.0099
     19 C          -6.2486    3.2817   -1.1724 C.ar    1  LIG1        0.1286
     20 H          -4.8709    1.8503   -2.0142 H       1  LIG1        0.0661
     21 C          -6.1473    0.9704    2.2427 C.3     1  LIG1       -0.0391
     22 H          -5.2754    1.2089    2.8152 H       1  LIG1        0.0278
     23 H          -6.1396   -0.0714    1.9986 H       1  LIG1        0.0278
     24 H          -7.0226    1.1961    2.8151 H       1  LIG1        0.0278
     25 O          -6.2903    4.0197   -2.2419 O.3     1  LIG1       -0.4945
     26 C          -4.9598    4.3666   -2.6345 C.3     1  LIG1        0.0788
     27 H          -4.9945    4.9738   -3.5148 H       1  LIG1        0.0660
     28 H          -4.4851    4.9104   -1.8446 H       1  LIG1        0.0660
     29 H          -4.4040    3.4752   -2.8379 H       1  LIG1        0.0660
     30 C          -9.1398    4.5870   -0.0647 C.ar    1  LIG1        0.2233
     31 C          -7.7373    4.6970   -0.0581 C.ar    1  LIG1        0.0506
     32 C          -7.1685    5.9719   -0.0648 C.ar    1  LIG1       -0.0051
     33 C          -8.0121    7.0840   -0.0779 C.ar    1  LIG1        0.1450
     34 C          -9.4029    6.8718   -0.0839 C.ar    1  LIG1        0.1334
     35 N          -9.9686    5.6490   -0.0774 N.ar    1  LIG1       -0.2072
     36 H          -6.0764    6.0974   -0.0609 H       1  LIG1        0.0662
     37 O          -9.7161    3.4216   -0.0587 O.3     1  LIG1       -0.4792
     38 C         -11.1360    3.5914   -0.0566 C.3     1  LIG1        0.0804
     39 H         -11.6099    2.6321   -0.0519 H       1  LIG1        0.0660
     40 H         -11.4286    4.1380    0.8155 H       1  LIG1        0.0660
     41 H         -11.4320    4.1311   -0.9318 H       1  LIG1        0.0660
     42 O          -7.5316    8.2920   -0.0848 O.3     1  LIG1       -0.5045
     43 H          -8.2541    8.9242   -0.0865 H       1  LIG1        0.2922
     44 C         -10.2292    7.8754   -0.0961 C.ar    1  LIG1        0.0865
     45 C         -10.9345    8.4248   -1.1201 C.ar    1  LIG1        0.0815
     46 C         -11.6925    9.5138   -0.5816 C.ar    1  LIG1       -0.0151
     47 C         -11.4184    9.5809    0.7483 C.ar    1  LIG1        0.0064
     48 N         -10.5227    8.5799    1.0496 N.ar    1  LIG1       -0.3581
     49 H         -10.1478    8.3948    1.9514 H       1  LIG1        0.1654
     50 H         -11.8596   10.3954    1.6604 H       1  LIG1        0.0810
     51 N         -10.9066    7.6857   -3.4523 N.1     1  LIG1       -0.1908
     52 C         -10.9197    8.0321   -2.3593 C.1     1  LIG1        0.1016
     53 C         -12.4960   10.2961   -1.2397 C.3     1  LIG1       -0.0371
     54 H         -13.5088   10.0628   -0.9852 H       1  LIG1        0.0278
     55 H         -12.3506   10.1544   -2.2903 H       1  LIG1        0.0278
     56 H         -12.2899   11.3147   -0.9852 H       1  LIG1        0.0278
@<TRIPOS>BOND
     1    27    26    1
     2    51    52    3
     3    29    26    1
     4    26    25    1
     5    26    28    1
     6    52    45    1
     7    55    53    1
     8    25    19    1
     9    20    18    1
    10    53    56    1
    11    53    54    1
    12    53    46    1
    13    19    18   ar
    14    19    16   ar
    15    18    15   ar
    16    45    46   ar
    17    45    44   ar
    18    41    38    1
    19    46    47   ar
    20    11     9    1
    21    10     9    1
    22    44    34    1
    23    44    48   ar
    24    43    42    1
    25    42    33    1
    26    34    33   ar
    27    34    35   ar
    28    33    32   ar
    29    35    30   ar
    30    32    36    1
    31    32    31   ar
    32    30    37    1
    33    30    31   ar
    34    37    38    1
    35    31    16    1
    36    38    39    1
    37    38    40    1
    38    16    14   ar
    39     7     3    1
    40    15     5    1
    41    15    13   ar
    42     5     4   ar
    43     5     6   ar
    44    12     4    1
    45     4     3   ar
    46     6     1   ar
    47     1     2   ar
    48     1     9    1
    49     2     3   ar
    50     2     8    1
    51    47    48   ar
    52    47    50    1
    53    48    49    1
    54    14    13   ar
    55    14    17    1
    56    13    21    1
    57    23    21    1
    58    21    24    1
    59    21    22    1
