@<TRIPOS>MOLECULE
mol_data/noopt/geoms/mol2/6ha6ha6ha6ha-.out
 46 49 0 0 0
SMALL
GASTEIGER

@<TRIPOS>ATOM
      1 C          -4.5775   -2.0270    0.0001 C.ar    1  LIG1        0.1168
      2 C          -3.1706   -2.0270    0.0001 C.ar    1  LIG1       -0.0221
      3 C          -2.5039   -0.8004    0.0001 C.ar    1  LIG1       -0.0565
      4 C          -3.2580    0.3743   -0.0001 C.ar    1  LIG1       -0.0355
      5 C          -4.6612    0.2715   -0.0003 C.ar    1  LIG1        0.0764
      6 N          -5.3207   -0.9034   -0.0001 N.ar    1  LIG1       -0.2323
      7 H          -1.4054   -0.7607   -0.0009 H       1  LIG1        0.0619
      8 H          -2.5135   -3.1487    0.0004 H       1  LIG1        0.0652
      9 N          -5.2431   -3.1437    0.0002 N.pl3   1  LIG1       -0.3431
     10 H          -6.1151   -3.0120   -0.4712 H       1  LIG1        0.1437
     11 H          -4.7125   -3.8481   -0.4712 H       1  LIG1        0.1437
     12 H          -2.6846    1.5410   -0.0003 H       1  LIG1        0.0639
     13 C          -6.8088    1.2233   -0.0003 C.ar    1  LIG1        0.1261
     14 C          -5.4065    1.3366   -0.0004 C.ar    1  LIG1        0.0399
     15 C          -4.8408    2.6129   -0.0003 C.ar    1  LIG1       -0.0473
     16 C          -5.6871    3.7231   -0.0003 C.ar    1  LIG1       -0.0348
     17 C          -7.0774    3.5076   -0.0004 C.ar    1  LIG1        0.0764
     18 N          -7.6401    2.2834   -0.0003 N.ar    1  LIG1       -0.2317
     19 H          -3.7491    2.7410   -0.0014 H       1  LIG1        0.0626
     20 N          -7.3823    0.0566   -0.0003 N.pl3   1  LIG1       -0.3426
     21 H          -8.2621    0.1177   -0.4717 H       1  LIG1        0.1437
     22 H          -6.7967   -0.6027   -0.4717 H       1  LIG1        0.1437
     23 H          -5.2095    4.9322   -0.0004 H       1  LIG1        0.0639
     24 C          -9.2948    4.2833   -0.0001 C.ar    1  LIG1        0.1261
     25 C          -7.9061    4.5092   -0.0003 C.ar    1  LIG1        0.0399
     26 C          -7.4450    5.8270   -0.0001 C.ar    1  LIG1       -0.0473
     27 C          -8.3780    6.8653    0.0002 C.ar    1  LIG1       -0.0348
     28 C          -9.7465    6.5385    0.0002 C.ar    1  LIG1        0.0764
     29 N         -10.2087    5.2730    0.0002 N.ar    1  LIG1       -0.2317
     30 H          -6.3672    6.0425   -0.0012 H       1  LIG1        0.0626
     31 N          -9.7724    3.0742   -0.0002 N.pl3   1  LIG1       -0.3426
     32 H         -10.6542    3.0642   -0.4716 H       1  LIG1        0.1437
     33 H          -9.1355    2.4643   -0.4716 H       1  LIG1        0.1437
     34 H          -7.9994    8.1090    0.0002 H       1  LIG1        0.0639
     35 C         -10.2792    8.8264    0.0008 C.ar    1  LIG1        0.1254
     36 C         -10.6531    7.4702    0.0005 C.ar    1  LIG1        0.0399
     37 C         -12.0128    7.1535    0.0008 C.ar    1  LIG1       -0.0478
     38 C         -12.9448    8.1927    0.0012 C.ar    1  LIG1       -0.0428
     39 C         -12.4727    9.5181    0.0013 C.ar    1  LIG1        0.0297
     40 N         -11.1648    9.8416    0.0012 N.ar    1  LIG1       -0.2401
     41 H         -12.3431    6.1051   -0.0005 H       1  LIG1        0.0626
     42 H         -13.3014   10.5197    0.0018 H       1  LIG1        0.0830
     43 N          -9.0257    9.1713    0.0006 N.pl3   1  LIG1       -0.3426
     44 H          -8.4878    8.4724   -0.4708 H       1  LIG1        0.1437
     45 H          -8.9209   10.0469   -0.4709 H       1  LIG1        0.1437
     46 H         -14.2220    7.9501    0.0013 H       1  LIG1        0.0633
@<TRIPOS>BOND
     1    22    20    1
     2    21    20    1
     3    33    31    1
     4    32    31    1
     5    11     9    1
     6    10     9    1
     7    45    43    1
     8    44    43    1
     9    19    15    1
    10    30    26    1
    11     7     3    1
    12    41    37    1
    13    14     5    1
    14    14    13   ar
    15    14    15   ar
    16    17    18   ar
    17    17    25    1
    18    17    16   ar
    19    23    16    1
    20    12     4    1
    21     5     6   ar
    22     5     4   ar
    23    13    20    1
    24    13    18   ar
    25    15    16   ar
    26    25    24   ar
    27    25    26   ar
    28    31    24    1
    29     6     1   ar
    30     4     3   ar
    31    24    29   ar
    32    26    27   ar
    33     1     2   ar
    34     1     9    1
    35     2     3   ar
    36     2     8    1
    37    29    28   ar
    38    28    27   ar
    39    28    36    1
    40    27    34    1
    41    36    37   ar
    42    36    35   ar
    43    43    35    1
    44    37    38   ar
    45    35    40   ar
    46    38    39   ar
    47    38    46    1
    48    40    39   ar
    49    39    42    1
