@<TRIPOS>MOLECULE
mol_data/noopt/geoms/mol2/6ha6ha-6ha.out
 35 37 0 0 0
SMALL
GASTEIGER

@<TRIPOS>ATOM
      1 C          -4.5775   -2.0270    0.0001 C.ar    1  LIG1        0.1168
      2 C          -3.1706   -2.0270    0.0001 C.ar    1  LIG1       -0.0221
      3 C          -2.5039   -0.8004    0.0001 C.ar    1  LIG1       -0.0565
      4 C          -3.2580    0.3743   -0.0001 C.ar    1  LIG1       -0.0355
      5 C          -4.6612    0.2715   -0.0003 C.ar    1  LIG1        0.0764
      6 N          -5.3207   -0.9034   -0.0001 N.ar    1  LIG1       -0.2323
      7 H          -1.4054   -0.7607   -0.0009 H       1  LIG1        0.0619
      8 H          -2.5135   -3.1487    0.0004 H       1  LIG1        0.0652
      9 N          -5.2431   -3.1437    0.0002 N.pl3   1  LIG1       -0.3431
     10 H          -6.1151   -3.0120   -0.4712 H       1  LIG1        0.1437
     11 H          -4.7125   -3.8481   -0.4712 H       1  LIG1        0.1437
     12 H          -2.6846    1.5410   -0.0003 H       1  LIG1        0.0639
     13 C          -4.8196    2.6153   -0.0003 C.ar    1  LIG1        0.1261
     14 C          -5.4065    1.3366   -0.0004 C.ar    1  LIG1        0.0399
     15 C          -6.7994    1.2424   -0.0003 C.ar    1  LIG1       -0.0473
     16 C          -7.5524    2.4178   -0.0003 C.ar    1  LIG1       -0.0348
     17 C          -6.8736    3.6502   -0.0004 C.ar    1  LIG1        0.0764
     18 N          -5.5307    3.7594   -0.0003 N.ar    1  LIG1       -0.2317
     19 H          -7.2937    0.2606   -0.0014 H       1  LIG1        0.0626
     20 N          -3.5270    2.7543   -0.0003 N.pl3   1  LIG1       -0.3426
     21 H          -3.1083    1.9782   -0.4717 H       1  LIG1        0.1437
     22 H          -3.2830    3.6018   -0.4717 H       1  LIG1        0.1437
     23 H          -8.8520    2.3834   -0.0004 H       1  LIG1        0.0639
     24 C          -8.9376    4.7719   -0.0001 C.ar    1  LIG1        0.1254
     25 C          -7.5307    4.7719   -0.0003 C.ar    1  LIG1        0.0399
     26 C          -6.8640    5.9985   -0.0001 C.ar    1  LIG1       -0.0478
     27 C          -7.6181    7.1732    0.0002 C.ar    1  LIG1       -0.0428
     28 C          -9.0213    7.0704    0.0002 C.ar    1  LIG1        0.0297
     29 N          -9.6808    5.8955    0.0002 N.ar    1  LIG1       -0.2401
     30 H          -5.7655    6.0382   -0.0012 H       1  LIG1        0.0626
     31 H          -9.7666    8.1355    0.0005 H       1  LIG1        0.0830
     32 N          -9.6032    3.6552   -0.0002 N.pl3   1  LIG1       -0.3426
     33 H         -10.4752    3.7869   -0.4716 H       1  LIG1        0.1437
     34 H          -9.0726    2.9509   -0.4716 H       1  LIG1        0.1437
     35 H          -7.0447    8.3399    0.0002 H       1  LIG1        0.0633
@<TRIPOS>BOND
     1    22    20    1
     2    21    20    1
     3    34    32    1
     4    33    32    1
     5    11     9    1
     6    10     9    1
     7    19    15    1
     8    30    26    1
     9     7     3    1
    10    14    15   ar
    11    14     5    1
    12    14    13   ar
    13    23    16    1
    14    17    16   ar
    15    17    25    1
    16    17    18   ar
    17    15    16   ar
    18     5     6   ar
    19     5     4   ar
    20    12     4    1
    21    25    24   ar
    22    25    26   ar
    23    13    18   ar
    24    13    20    1
    25    32    24    1
    26     6     1   ar
    27     4     3   ar
    28    24    29   ar
    29    26    27   ar
    30     1     2   ar
    31     1     9    1
    32     3     2   ar
    33     2     8    1
    34    29    28   ar
    35    28    27   ar
    36    28    31    1
    37    27    35    1
