@<TRIPOS>MOLECULE
mol_data/noopt/geoms/mol2/6ha6ha-6ha-6ha-.out
 46 49 0 0 0
SMALL
GASTEIGER

@<TRIPOS>ATOM
      1 C          -4.5775   -2.0270    0.0001 C.ar    1  LIG1        0.1168
      2 C          -3.1706   -2.0270    0.0001 C.ar    1  LIG1       -0.0221
      3 C          -2.5039   -0.8004    0.0001 C.ar    1  LIG1       -0.0565
      4 C          -3.2580    0.3743   -0.0001 C.ar    1  LIG1       -0.0355
      5 C          -4.6612    0.2715   -0.0003 C.ar    1  LIG1        0.0764
      6 N          -5.3207   -0.9034   -0.0001 N.ar    1  LIG1       -0.2323
      7 H          -1.4054   -0.7607   -0.0009 H       1  LIG1        0.0619
      8 H          -2.5135   -3.1487    0.0004 H       1  LIG1        0.0652
      9 N          -5.2431   -3.1437    0.0002 N.pl3   1  LIG1       -0.3431
     10 H          -6.1151   -3.0120   -0.4712 H       1  LIG1        0.1437
     11 H          -4.7125   -3.8481   -0.4712 H       1  LIG1        0.1437
     12 H          -2.6846    1.5410   -0.0003 H       1  LIG1        0.0639
     13 C          -4.8196    2.6153   -0.0003 C.ar    1  LIG1        0.1261
     14 C          -5.4065    1.3366   -0.0004 C.ar    1  LIG1        0.0399
     15 C          -6.7994    1.2424   -0.0003 C.ar    1  LIG1       -0.0473
     16 C          -7.5524    2.4178   -0.0003 C.ar    1  LIG1       -0.0348
     17 C          -6.8736    3.6502   -0.0004 C.ar    1  LIG1        0.0764
     18 N          -5.5307    3.7594   -0.0003 N.ar    1  LIG1       -0.2317
     19 H          -7.2937    0.2606   -0.0014 H       1  LIG1        0.0626
     20 N          -3.5270    2.7543   -0.0003 N.pl3   1  LIG1       -0.3426
     21 H          -3.1083    1.9782   -0.4717 H       1  LIG1        0.1437
     22 H          -3.2830    3.6018   -0.4717 H       1  LIG1        0.1437
     23 H          -8.8520    2.3834   -0.0004 H       1  LIG1        0.0639
     24 C          -6.8427    5.9991   -0.0000 C.ar    1  LIG1        0.1261
     25 C          -7.5307    4.7719   -0.0003 C.ar    1  LIG1        0.0399
     26 C          -8.9267    4.7902   -0.0001 C.ar    1  LIG1       -0.0473
     27 C          -9.5826    6.0224    0.0002 C.ar    1  LIG1       -0.0348
     28 C          -8.8067    7.1961    0.0002 C.ar    1  LIG1        0.0764
     29 N          -7.4594    7.1968    0.0002 N.ar    1  LIG1       -0.2317
     30 H          -9.4985    3.8514   -0.0012 H       1  LIG1        0.0626
     31 N          -5.5432    6.0336   -0.0001 N.pl3   1  LIG1       -0.3426
     32 H          -5.1884    5.2262   -0.4716 H       1  LIG1        0.1437
     33 H          -5.2317    6.8586   -0.4716 H       1  LIG1        0.1437
     34 H         -10.8807    6.0928    0.0002 H       1  LIG1        0.0639
     35 C          -8.5867    9.5349    0.0008 C.ar    1  LIG1        0.1254
     36 C          -9.3714    8.3671    0.0005 C.ar    1  LIG1        0.0399
     37 C         -10.7613    8.4977    0.0008 C.ar    1  LIG1       -0.0478
     38 C         -11.3158    9.7788    0.0012 C.ar    1  LIG1       -0.0428
     39 C         -10.4479   10.8862    0.0013 C.ar    1  LIG1        0.0297
     40 N          -9.1049   10.7784    0.0012 N.ar    1  LIG1       -0.2401
     41 H         -11.4069    7.6081   -0.0005 H       1  LIG1        0.0626
     42 H         -10.9164   12.0988    0.0018 H       1  LIG1        0.0830
     43 N          -7.2886    9.4646    0.0006 N.pl3   1  LIG1       -0.3426
     44 H          -7.0000    8.6313   -0.4708 H       1  LIG1        0.1437
     45 H          -6.9117   10.2618   -0.4708 H       1  LIG1        0.1437
     46 H         -12.6040    9.9535    0.0014 H       1  LIG1        0.0633
@<TRIPOS>BOND
     1    22    20    1
     2    21    20    1
     3    33    31    1
     4    32    31    1
     5    11     9    1
     6    10     9    1
     7    45    43    1
     8    44    43    1
     9    19    15    1
    10    30    26    1
    11     7     3    1
    12    41    37    1
    13    14    15   ar
    14    14     5    1
    15    14    13   ar
    16    23    16    1
    17    17    16   ar
    18    17    25    1
    19    17    18   ar
    20    15    16   ar
    21    12     4    1
    22     5     6   ar
    23     5     4   ar
    24    25    26   ar
    25    25    24   ar
    26    13    18   ar
    27    13    20    1
    28    31    24    1
    29     6     1   ar
    30     4     3   ar
    31    26    27   ar
    32    24    29   ar
    33     1     2   ar
    34     1     9    1
    35     2     3   ar
    36     2     8    1
    37    27    28   ar
    38    27    34    1
    39    28    29   ar
    40    28    36    1
    41    36    37   ar
    42    36    35   ar
    43    43    35    1
    44    37    38   ar
    45    35    40   ar
    46    38    39   ar
    47    38    46    1
    48    40    39   ar
    49    39    42    1
