@<TRIPOS>MOLECULE
mol_data/noopt/geoms/mol2/6ha6ha6ha.out
 35 37 0 0 0
SMALL
GASTEIGER

@<TRIPOS>ATOM
      1 C          -4.5775   -2.0270    0.0001 C.ar    1  LIG1        0.1168
      2 C          -3.1706   -2.0270    0.0001 C.ar    1  LIG1       -0.0221
      3 C          -2.5039   -0.8004    0.0001 C.ar    1  LIG1       -0.0565
      4 C          -3.2580    0.3743   -0.0001 C.ar    1  LIG1       -0.0355
      5 C          -4.6612    0.2715   -0.0003 C.ar    1  LIG1        0.0764
      6 N          -5.3207   -0.9034   -0.0001 N.ar    1  LIG1       -0.2323
      7 H          -1.4054   -0.7607   -0.0009 H       1  LIG1        0.0619
      8 H          -2.5135   -3.1487    0.0004 H       1  LIG1        0.0652
      9 N          -5.2431   -3.1437    0.0002 N.pl3   1  LIG1       -0.3431
     10 H          -6.1151   -3.0120   -0.4712 H       1  LIG1        0.1437
     11 H          -4.7125   -3.8481   -0.4712 H       1  LIG1        0.1437
     12 H          -2.6846    1.5410   -0.0003 H       1  LIG1        0.0639
     13 C          -6.8088    1.2233   -0.0003 C.ar    1  LIG1        0.1261
     14 C          -5.4065    1.3366   -0.0004 C.ar    1  LIG1        0.0399
     15 C          -4.8408    2.6129   -0.0003 C.ar    1  LIG1       -0.0473
     16 C          -5.6871    3.7231   -0.0003 C.ar    1  LIG1       -0.0348
     17 C          -7.0774    3.5076   -0.0004 C.ar    1  LIG1        0.0764
     18 N          -7.6401    2.2834   -0.0003 N.ar    1  LIG1       -0.2317
     19 H          -3.7491    2.7410   -0.0014 H       1  LIG1        0.0626
     20 N          -7.3823    0.0566   -0.0003 N.pl3   1  LIG1       -0.3426
     21 H          -8.2621    0.1177   -0.4717 H       1  LIG1        0.1437
     22 H          -6.7967   -0.6027   -0.4717 H       1  LIG1        0.1437
     23 H          -5.2095    4.9322   -0.0004 H       1  LIG1        0.0639
     24 C          -9.2948    4.2833   -0.0001 C.ar    1  LIG1        0.1254
     25 C          -7.9061    4.5092   -0.0003 C.ar    1  LIG1        0.0399
     26 C          -7.4450    5.8270   -0.0001 C.ar    1  LIG1       -0.0478
     27 C          -8.3780    6.8653    0.0002 C.ar    1  LIG1       -0.0428
     28 C          -9.7465    6.5385    0.0002 C.ar    1  LIG1        0.0297
     29 N         -10.2087    5.2730    0.0002 N.ar    1  LIG1       -0.2401
     30 H          -6.3672    6.0425   -0.0012 H       1  LIG1        0.0626
     31 H         -10.6531    7.4701    0.0005 H       1  LIG1        0.0830
     32 N          -9.7724    3.0742   -0.0002 N.pl3   1  LIG1       -0.3426
     33 H         -10.6542    3.0642   -0.4716 H       1  LIG1        0.1437
     34 H          -9.1355    2.4643   -0.4716 H       1  LIG1        0.1437
     35 H          -7.9994    8.1090    0.0002 H       1  LIG1        0.0633
@<TRIPOS>BOND
     1    22    20    1
     2    21    20    1
     3    34    32    1
     4    33    32    1
     5    11     9    1
     6    10     9    1
     7    19    15    1
     8    30    26    1
     9     7     3    1
    10    14     5    1
    11    14    13   ar
    12    14    15   ar
    13    17    18   ar
    14    17    25    1
    15    17    16   ar
    16    23    16    1
    17     5     6   ar
    18     5     4   ar
    19    12     4    1
    20    13    20    1
    21    13    18   ar
    22    15    16   ar
    23    25    24   ar
    24    25    26   ar
    25    32    24    1
    26     6     1   ar
    27     4     3   ar
    28    24    29   ar
    29    26    27   ar
    30     1     2   ar
    31     1     9    1
    32     3     2   ar
    33     2     8    1
    34    29    28   ar
    35    28    27   ar
    36    28    31    1
    37    27    35    1
