@<TRIPOS>MOLECULE
mol_data/noopt/geoms/mol2/6ha6ha-.out
 24 25 0 0 0
SMALL
GASTEIGER

@<TRIPOS>ATOM
      1 C          -4.5775   -2.0270    0.0001 C.ar    1  LIG1        0.1168
      2 C          -3.1706   -2.0270    0.0001 C.ar    1  LIG1       -0.0221
      3 C          -2.5039   -0.8004    0.0001 C.ar    1  LIG1       -0.0565
      4 C          -3.2580    0.3743   -0.0001 C.ar    1  LIG1       -0.0355
      5 C          -4.6612    0.2715   -0.0003 C.ar    1  LIG1        0.0764
      6 N          -5.3207   -0.9034   -0.0001 N.ar    1  LIG1       -0.2323
      7 H          -1.4054   -0.7607   -0.0009 H       1  LIG1        0.0619
      8 H          -2.5135   -3.1487    0.0004 H       1  LIG1        0.0652
      9 N          -5.2431   -3.1437    0.0002 N.pl3   1  LIG1       -0.3431
     10 H          -6.1151   -3.0120   -0.4712 H       1  LIG1        0.1437
     11 H          -4.7125   -3.8481   -0.4712 H       1  LIG1        0.1437
     12 H          -2.6846    1.5410   -0.0003 H       1  LIG1        0.0639
     13 C          -4.8196    2.6153   -0.0003 C.ar    1  LIG1        0.1254
     14 C          -5.4065    1.3366   -0.0004 C.ar    1  LIG1        0.0399
     15 C          -6.7994    1.2424   -0.0003 C.ar    1  LIG1       -0.0478
     16 C          -7.5524    2.4178   -0.0003 C.ar    1  LIG1       -0.0428
     17 C          -6.8736    3.6502   -0.0004 C.ar    1  LIG1        0.0297
     18 N          -5.5307    3.7594   -0.0003 N.ar    1  LIG1       -0.2401
     19 H          -7.2937    0.2606   -0.0014 H       1  LIG1        0.0626
     20 H          -7.5307    4.7719   -0.0003 H       1  LIG1        0.0830
     21 N          -3.5270    2.7543   -0.0003 N.pl3   1  LIG1       -0.3426
     22 H          -3.1083    1.9782   -0.4717 H       1  LIG1        0.1437
     23 H          -3.2830    3.6018   -0.4717 H       1  LIG1        0.1437
     24 H          -8.8520    2.3834   -0.0004 H       1  LIG1        0.0633
@<TRIPOS>BOND
     1    23    21    1
     2    22    21    1
     3    11     9    1
     4    10     9    1
     5    19    15    1
     6     7     3    1
     7    14    15   ar
     8    14     5    1
     9    14    13   ar
    10    24    16    1
    11    17    16   ar
    12    17    20    1
    13    17    18   ar
    14    15    16   ar
    15     5     6   ar
    16     5     4   ar
    17    12     4    1
    18    13    18   ar
    19    13    21    1
    20     6     1   ar
    21     4     3   ar
    22     1     2   ar
    23     1     9    1
    24     3     2   ar
    25     2     8    1
