@<TRIPOS>MOLECULE
mol_data/noopt/geoms/mol2/6ha6ha-4ha6ha.out
 47 50 0 0 0
SMALL
GASTEIGER

@<TRIPOS>ATOM
      1 C          -4.5775   -2.0270    0.0001 C.ar    1  LIG1        0.1168
      2 C          -3.1706   -2.0270    0.0001 C.ar    1  LIG1       -0.0221
      3 C          -2.5039   -0.8004    0.0001 C.ar    1  LIG1       -0.0565
      4 C          -3.2580    0.3743   -0.0001 C.ar    1  LIG1       -0.0355
      5 C          -4.6612    0.2715   -0.0003 C.ar    1  LIG1        0.0764
      6 N          -5.3207   -0.9034   -0.0001 N.ar    1  LIG1       -0.2323
      7 H          -1.4054   -0.7607   -0.0009 H       1  LIG1        0.0619
      8 H          -2.5135   -3.1487    0.0004 H       1  LIG1        0.0652
      9 N          -5.2431   -3.1437    0.0002 N.pl3   1  LIG1       -0.3431
     10 H          -6.1151   -3.0120   -0.4712 H       1  LIG1        0.1437
     11 H          -4.7125   -3.8481   -0.4712 H       1  LIG1        0.1437
     12 H          -2.6846    1.5410   -0.0003 H       1  LIG1        0.0639
     13 C          -4.8196    2.6153   -0.0003 C.ar    1  LIG1        0.1261
     14 C          -5.4065    1.3366   -0.0004 C.ar    1  LIG1        0.0399
     15 C          -6.7994    1.2424   -0.0003 C.ar    1  LIG1       -0.0473
     16 C          -7.5524    2.4178   -0.0003 C.ar    1  LIG1       -0.0349
     17 C          -6.8736    3.6502   -0.0004 C.ar    1  LIG1        0.0749
     18 N          -5.5307    3.7594   -0.0003 N.ar    1  LIG1       -0.2317
     19 H          -7.2937    0.2606   -0.0014 H       1  LIG1        0.0626
     20 N          -3.5270    2.7543   -0.0003 N.pl3   1  LIG1       -0.3426
     21 H          -3.1083    1.9782   -0.4717 H       1  LIG1        0.1437
     22 H          -3.2830    3.6018   -0.4717 H       1  LIG1        0.1437
     23 H          -8.8520    2.3834   -0.0004 H       1  LIG1        0.0639
     24 C          -6.8310    5.9958    0.0005 C.ar    1  LIG1        0.0344
     25 C          -7.5886    7.1830    0.0022 C.ar    1  LIG1       -0.0326
     26 C          -7.5307    4.7718   -0.0003 C.ar    1  LIG1        0.0211
     27 C          -8.9814    7.1551    0.0023 C.ar    1  LIG1       -0.0128
     28 H          -7.0688    8.1385    0.0030 H       1  LIG1        0.0642
     29 C          -8.9211    4.7434   -0.0001 C.ar    1  LIG1       -0.0502
     30 C          -9.6560    5.9336    0.0011 C.ar    1  LIG1       -0.0532
     31 H          -9.4376    3.7869   -0.0006 H       1  LIG1        0.0625
     32 N          -5.5341    6.0859    0.0002 N.pl3   1  LIG1       -0.3574
     33 H          -5.1452    5.2944   -0.4713 H       1  LIG1        0.1423
     34 H          -5.2583    6.9235   -0.4714 H       1  LIG1        0.1423
     35 H         -10.9556    5.9008    0.0014 H       1  LIG1        0.0624
     36 C         -11.0562    8.2567    0.0047 C.ar    1  LIG1        0.1239
     37 C          -9.6493    8.2703    0.0037 C.ar    1  LIG1        0.0217
     38 C          -8.9946    9.5034    0.0047 C.ar    1  LIG1       -0.0493
     39 C          -9.7600   10.6707    0.0063 C.ar    1  LIG1       -0.0429
     40 C         -11.1621   10.5543    0.0069 C.ar    1  LIG1        0.0297
     41 N         -11.8102    9.3730    0.0062 N.ar    1  LIG1       -0.2401
     42 H          -7.8965    9.5537    0.0030 H       1  LIG1        0.0625
     43 H         -11.9177   11.6121    0.0085 H       1  LIG1        0.0830
     44 N         -11.7109    7.1336    0.0040 N.pl3   1  LIG1       -0.3427
     45 H         -12.5840    7.2571   -0.4676 H       1  LIG1        0.1437
     46 H         -11.1733    6.4347   -0.4677 H       1  LIG1        0.1437
     47 H          -9.1980   11.8429    0.0071 H       1  LIG1        0.0633
@<TRIPOS>BOND
     1    22    20    1
     2    21    20    1
     3    34    32    1
     4    33    32    1
     5    11     9    1
     6    10     9    1
     7    46    44    1
     8    45    44    1
     9    19    15    1
    10     7     3    1
    11    31    29    1
    12    14    15   ar
    13    14     5    1
    14    14    13   ar
    15    23    16    1
    16    17    16   ar
    17    17    26    1
    18    17    18   ar
    19    15    16   ar
    20     5     6   ar
    21     5     4   ar
    22    12     4    1
    23    26    29   ar
    24    26    24   ar
    25    13    18   ar
    26    13    20    1
    27     6     1   ar
    28     4     3   ar
    29    29    30   ar
    30     1     2   ar
    31     1     9    1
    32     3     2   ar
    33     2     8    1
    34    32    24    1
    35    24    25   ar
    36    30    35    1
    37    30    27   ar
    38    25    27   ar
    39    25    28    1
    40    27    37    1
    41    42    38    1
    42    37    36   ar
    43    37    38   ar
    44    44    36    1
    45    36    41   ar
    46    38    39   ar
    47    41    40   ar
    48    39    40   ar
    49    39    47    1
    50    40    43    1
