@<TRIPOS>MOLECULE
mol_data/noopt/geoms/mol2/6ha6ha.out
 24 25 0 0 0
SMALL
GASTEIGER

@<TRIPOS>ATOM
      1 C          -4.5775   -2.0270    0.0001 C.ar    1  LIG1        0.1168
      2 C          -3.1706   -2.0270    0.0001 C.ar    1  LIG1       -0.0221
      3 C          -2.5039   -0.8004    0.0001 C.ar    1  LIG1       -0.0565
      4 C          -3.2580    0.3743   -0.0001 C.ar    1  LIG1       -0.0355
      5 C          -4.6612    0.2715   -0.0003 C.ar    1  LIG1        0.0764
      6 N          -5.3207   -0.9034   -0.0001 N.ar    1  LIG1       -0.2323
      7 H          -1.4054   -0.7607   -0.0009 H       1  LIG1        0.0619
      8 H          -2.5135   -3.1487    0.0004 H       1  LIG1        0.0652
      9 N          -5.2431   -3.1437    0.0002 N.pl3   1  LIG1       -0.3431
     10 H          -6.1151   -3.0120   -0.4712 H       1  LIG1        0.1437
     11 H          -4.7125   -3.8481   -0.4712 H       1  LIG1        0.1437
     12 H          -2.6846    1.5410   -0.0003 H       1  LIG1        0.0639
     13 C          -6.8088    1.2233   -0.0003 C.ar    1  LIG1        0.1254
     14 C          -5.4065    1.3366   -0.0004 C.ar    1  LIG1        0.0399
     15 C          -4.8408    2.6129   -0.0003 C.ar    1  LIG1       -0.0478
     16 C          -5.6871    3.7231   -0.0003 C.ar    1  LIG1       -0.0428
     17 C          -7.0774    3.5076   -0.0004 C.ar    1  LIG1        0.0297
     18 N          -7.6401    2.2834   -0.0003 N.ar    1  LIG1       -0.2401
     19 H          -3.7491    2.7410   -0.0014 H       1  LIG1        0.0626
     20 H          -7.9061    4.5092   -0.0003 H       1  LIG1        0.0830
     21 N          -7.3823    0.0566   -0.0003 N.pl3   1  LIG1       -0.3426
     22 H          -8.2621    0.1177   -0.4717 H       1  LIG1        0.1437
     23 H          -6.7967   -0.6027   -0.4717 H       1  LIG1        0.1437
     24 H          -5.2095    4.9322   -0.0004 H       1  LIG1        0.0633
@<TRIPOS>BOND
     1    23    21    1
     2    22    21    1
     3    11     9    1
     4    10     9    1
     5    19    15    1
     6     7     3    1
     7    14     5    1
     8    14    13   ar
     9    14    15   ar
    10    17    18   ar
    11    17    20    1
    12    17    16   ar
    13    24    16    1
    14     5     6   ar
    15     5     4   ar
    16    12     4    1
    17    13    21    1
    18    13    18   ar
    19    15    16   ar
    20     6     1   ar
    21     4     3   ar
    22     1     2   ar
    23     1     9    1
    24     3     2   ar
    25     2     8    1
