@<TRIPOS>MOLECULE
mol_data/noopt/geoms/mol2/6hd12le(180)4il(60)13de(330).out
 55 58 0 0 0
SMALL
GASTEIGER

@<TRIPOS>ATOM
      1 C          -4.5775   -2.0270    0.0001 C.ar    1  LIG1        0.1170
      2 C          -3.1706   -2.0270    0.0001 C.ar    1  LIG1       -0.0208
      3 C          -2.5039   -0.8004    0.0001 C.ar    1  LIG1       -0.0389
      4 C          -3.2580    0.3743   -0.0001 C.ar    1  LIG1        0.0810
      5 C          -4.6612    0.2715   -0.0003 C.ar    1  LIG1        0.1291
      6 N          -5.3207   -0.9034   -0.0001 N.ar    1  LIG1       -0.2279
      7 H          -1.4054   -0.7607   -0.0009 H       1  LIG1        0.0632
      8 H          -2.5135   -3.1487    0.0004 H       1  LIG1        0.0652
      9 N          -5.2431   -3.1437    0.0002 N.pl3   1  LIG1       -0.3431
     10 H          -6.1151   -3.0120   -0.4712 H       1  LIG1        0.1437
     11 H          -4.7125   -3.8481   -0.4712 H       1  LIG1        0.1437
     12 N          -2.1789    2.5700   -0.0005 N.1     1  LIG1       -0.1908
     13 C          -2.6846    1.5410   -0.0003 C.1     1  LIG1        0.1014
     14 C          -5.4065    1.3366   -0.0004 C.ar    1  LIG1        0.1977
     15 C          -6.7630    1.5877   -0.0005 C.ar    1  LIG1        0.1833
     16 C          -6.9184    3.0274   -0.0006 C.ar    1  LIG1        0.1127
     17 C          -5.6459    3.5608   -0.0005 C.ar    1  LIG1        0.1551
     18 O          -4.6967    2.5382   -0.0003 O.2     1  LIG1       -0.4482
     19 O          -7.7325    0.7215   -0.0005 O.3     1  LIG1       -0.4901
     20 C          -8.9865    1.4088   -0.0006 C.3     1  LIG1        0.0790
     21 H          -9.7841    0.6956   -0.0008 H       1  LIG1        0.0660
     22 H          -9.0570    2.0225    0.8732 H       1  LIG1        0.0660
     23 H          -9.0567    2.0227   -0.8741 H       1  LIG1        0.0660
     24 C          -8.0500    3.6673   -0.0006 C.1     1  LIG1       -0.0622
     25 C          -9.0956    4.2586   -0.0007 C.1     1  LIG1       -0.1137
     26 H         -10.0270    4.7852   -0.0008 H       1  LIG1        0.1232
     27 C          -4.3101    5.1727    1.0584 C.ar    1  LIG1       -0.0389
     28 C          -3.7931    6.4819    1.0127 C.ar    1  LIG1       -0.0455
     29 C          -5.1444    4.7601   -0.0006 C.ar    1  LIG1        0.0250
     30 C          -4.0918    7.3437   -0.0403 C.ar    1  LIG1        0.0415
     31 H          -3.1473    6.8207    1.8197 H       1  LIG1        0.0628
     32 C          -5.4430    5.6201   -1.0520 C.ar    1  LIG1       -0.0083
     33 C          -4.9194    6.9168   -1.0796 C.ar    1  LIG1        0.1299
     34 H          -6.0889    5.2785   -1.8568 H       1  LIG1        0.0661
     35 C          -3.9954    4.4147    2.0670 C.3     1  LIG1       -0.0390
     36 H          -3.2522    4.9031    2.6621 H       1  LIG1        0.0278
     37 H          -3.6090    3.4841    1.7070 H       1  LIG1        0.0278
     38 H          -4.8660    4.2332    2.6620 H       1  LIG1        0.0278
     39 O          -5.2020    7.7164   -2.0650 O.3     1  LIG1       -0.4944
     40 C          -4.0349    8.4592   -2.4268 C.3     1  LIG1        0.0788
     41 H          -4.2679    9.1170   -3.2379 H       1  LIG1        0.0660
     42 H          -3.7025    9.0327   -1.5868 H       1  LIG1        0.0660
     43 H          -3.2609    7.7839   -2.7263 H       1  LIG1        0.0660
     44 C          -3.5972    8.5459   -0.0506 C.ar    1  LIG1        0.0688
     45 C          -2.4184    9.0103   -0.5432 C.ar    1  LIG1        0.0924
     46 C          -2.3740   10.4189   -0.2893 C.ar    1  LIG1        0.0599
     47 C          -3.5285   10.7536    0.3458 C.ar    1  LIG1        0.0189
     48 N          -4.2800    9.6098    0.4943 N.ar    1  LIG1       -0.3584
     49 H          -5.1740    9.5601    0.9259 H       1  LIG1        0.1654
     50 H          -3.9498   11.9046    0.7789 H       1  LIG1        0.0820
     51 N          -0.6934    7.6784   -1.6551 N.1     1  LIG1       -0.1908
     52 C          -1.5018    8.3026   -1.1340 C.1     1  LIG1        0.1025
     53 C          -1.4098   11.2311   -0.6064 C.1     1  LIG1       -0.0669
     54 C          -0.5189   11.9816   -0.8994 C.1     1  LIG1       -0.1138
     55 H           0.2748   12.6501   -1.1604 H       1  LIG1        0.1232
@<TRIPOS>BOND
     1    41    40    1
     2    43    40    1
     3    40    39    1
     4    40    42    1
     5    39    33    1
     6    34    32    1
     7    51    52    3
     8    55    54    1
     9    52    45    1
    10    33    32   ar
    11    33    30   ar
    12    32    29   ar
    13    54    53    3
    14    23    20    1
    15    53    46    1
    16    45    46   ar
    17    45    44   ar
    18    11     9    1
    19    10     9    1
    20    46    47   ar
    21    44    30    1
    22    44    48   ar
    23    30    28   ar
    24     7     3    1
    25    21    20    1
    26    26    25    1
    27    25    24    3
    28    24    16    1
    29    20    19    1
    30    20    22    1
    31    16    17   ar
    32    16    15   ar
    33    29    17    1
    34    29    27   ar
    35    19    15    1
    36    12    13    3
    37    17    18   ar
    38    15    14   ar
    39    14     5    1
    40    14    18   ar
    41    13     4    1
    42     5     6   ar
    43     5     4   ar
    44     6     1   ar
    45     4     3   ar
    46     1     2   ar
    47     1     9    1
    48     3     2   ar
    49     2     8    1
    50    47    48   ar
    51    47    50    1
    52    48    49    1
    53    28    27   ar
    54    28    31    1
    55    27    35    1
    56    37    35    1
    57    35    38    1
    58    35    36    1
