@<TRIPOS>MOLECULE
mol_data/noopt/geoms/mol2/6hd6hd6hd-6hd-.out
 50 53 0 0 0
SMALL
GASTEIGER

@<TRIPOS>ATOM
      1 C          -4.5775   -2.0270    0.0001 C.ar    1  LIG1        0.1169
      2 C          -3.1706   -2.0270    0.0001 C.ar    1  LIG1       -0.0208
      3 C          -2.5039   -0.8004    0.0001 C.ar    1  LIG1       -0.0390
      4 C          -3.2580    0.3743   -0.0001 C.ar    1  LIG1        0.0779
      5 C          -4.6612    0.2715   -0.0003 C.ar    1  LIG1        0.0937
      6 N          -5.3207   -0.9034   -0.0001 N.ar    1  LIG1       -0.2310
      7 H          -1.4054   -0.7607   -0.0009 H       1  LIG1        0.0632
      8 H          -2.5135   -3.1487    0.0004 H       1  LIG1        0.0652
      9 N          -5.2431   -3.1437    0.0002 N.pl3   1  LIG1       -0.3431
     10 H          -6.1151   -3.0120   -0.4712 H       1  LIG1        0.1437
     11 H          -4.7125   -3.8481   -0.4712 H       1  LIG1        0.1437
     12 N          -2.1789    2.5700   -0.0005 N.1     1  LIG1       -0.1908
     13 C          -2.6846    1.5410   -0.0003 C.1     1  LIG1        0.1013
     14 C          -6.8088    1.2233   -0.0003 C.ar    1  LIG1        0.1261
     15 C          -5.4065    1.3366   -0.0004 C.ar    1  LIG1        0.0418
     16 C          -4.8408    2.6129   -0.0003 C.ar    1  LIG1       -0.0385
     17 C          -5.6871    3.7231   -0.0003 C.ar    1  LIG1        0.0216
     18 C          -7.0774    3.5076   -0.0004 C.ar    1  LIG1        0.0851
     19 N          -7.6401    2.2834   -0.0003 N.ar    1  LIG1       -0.2310
     20 H          -3.7491    2.7410   -0.0014 H       1  LIG1        0.0632
     21 N          -7.3823    0.0566   -0.0003 N.pl3   1  LIG1       -0.3426
     22 H          -8.2621    0.1177   -0.4717 H       1  LIG1        0.1437
     23 H          -6.7967   -0.6027   -0.4717 H       1  LIG1        0.1437
     24 N          -4.7883    5.9986   -0.0004 N.2     1  LIG1       -0.1570
     25 C          -5.2095    4.9322   -0.0004 C.2     1  LIG1        0.0591
     26 C          -7.4241    5.8310   -0.0000 C.ar    1  LIG1        0.1449
     27 C          -7.9061    4.5092   -0.0003 C.ar    1  LIG1        0.0434
     28 C          -9.2869    4.3031   -0.0001 C.ar    1  LIG1       -0.0297
     29 C         -10.1321    5.4140    0.0002 C.ar    1  LIG1        0.0785
     30 C          -9.5548    6.6971    0.0002 C.ar    1  LIG1        0.0938
     31 N          -8.2251    6.9141    0.0002 N.ar    1  LIG1       -0.2287
     32 H          -9.7005    3.2847   -0.0012 H       1  LIG1        0.0639
     33 N          -6.1469    6.0737   -0.0001 N.pl3   1  LIG1       -0.2488
     34 H          -5.6671    5.3338   -0.4716 H       1  LIG1        0.0855
     35 H          -5.9720    6.9380   -0.4716 H       1  LIG1        0.1715
     36 N         -12.5647    5.1524    0.0002 N.1     1  LIG1       -0.1908
     37 C         -11.4247    5.2750    0.0002 C.1     1  LIG1        0.1013
     38 C          -9.7132    9.0408    0.0008 C.ar    1  LIG1        0.1255
     39 C         -10.3001    7.7622    0.0005 C.ar    1  LIG1        0.0424
     40 C         -11.6930    7.6680    0.0008 C.ar    1  LIG1       -0.0304
     41 C         -12.4461    8.8434    0.0012 C.ar    1  LIG1        0.0706
     42 C         -11.7673   10.0758    0.0013 C.ar    1  LIG1        0.0471
     43 N         -10.4244   10.1850    0.0012 N.ar    1  LIG1       -0.2388
     44 H         -12.1874    6.6862   -0.0005 H       1  LIG1        0.0638
     45 H         -12.4244   11.1974    0.0018 H       1  LIG1        0.0843
     46 N          -8.4207    9.1799    0.0006 N.pl3   1  LIG1       -0.3426
     47 H          -8.0020    8.4037   -0.4708 H       1  LIG1        0.1437
     48 H          -8.1767   10.0273   -0.4709 H       1  LIG1        0.1437
     49 N         -14.8918    8.7786    0.0014 N.1     1  LIG1       -0.1908
     50 C         -13.7456    8.8090    0.0013 C.1     1  LIG1        0.1007
@<TRIPOS>BOND
     1    23    21    1
     2    22    21    1
     3    35    33    1
     4    34    25    1
     5    11     9    1
     6    10     9    1
     7    48    46    1
     8    47    46    1
     9    20    16    1
    10    32    28    1
    11     7     3    1
    12    12    13    3
    13    44    40    1
    14    24    25    2
    15    15     5    1
    16    15    14   ar
    17    15    16   ar
    18    18    19   ar
    19    18    27    1
    20    18    17   ar
    21    25    17    1
    22     5     6   ar
    23     5     4   ar
    24    13     4    1
    25    14    21    1
    26    14    19   ar
    27    16    17   ar
    28    27    28   ar
    29    27    26   ar
    30    33    26    1
    31     6     1   ar
    32     4     3   ar
    33    28    29   ar
    34    26    31   ar
    35     1     2   ar
    36     1     9    1
    37     2     3   ar
    38     2     8    1
    39    29    37    1
    40    29    30   ar
    41    37    36    3
    42    30    31   ar
    43    30    39    1
    44    39    40   ar
    45    39    38   ar
    46    46    38    1
    47    40    41   ar
    48    38    43   ar
    49    41    42   ar
    50    41    50    1
    51    43    42   ar
    52    42    45    1
    53    50    49    3
