@<TRIPOS>MOLECULE
mol_data/noopt/geoms/mol2/6hd6hh(330)12he(280)4ad(170).out
 49 52 0 0 0
SMALL
GASTEIGER

@<TRIPOS>ATOM
      1 C          -4.5775   -2.0270    0.0001 C.ar    1  LIG1        0.1169
      2 C          -3.1706   -2.0270    0.0001 C.ar    1  LIG1       -0.0208
      3 C          -2.5039   -0.8004    0.0001 C.ar    1  LIG1       -0.0390
      4 C          -3.2580    0.3743   -0.0001 C.ar    1  LIG1        0.0779
      5 C          -4.6612    0.2715   -0.0003 C.ar    1  LIG1        0.0937
      6 N          -5.3207   -0.9034   -0.0001 N.ar    1  LIG1       -0.2310
      7 H          -1.4054   -0.7607   -0.0009 H       1  LIG1        0.0632
      8 H          -2.5135   -3.1487    0.0004 H       1  LIG1        0.0652
      9 N          -5.2431   -3.1437    0.0002 N.pl3   1  LIG1       -0.3431
     10 H          -6.1151   -3.0120   -0.4712 H       1  LIG1        0.1437
     11 H          -4.7125   -3.8481   -0.4712 H       1  LIG1        0.1437
     12 N          -2.1789    2.5700   -0.0005 N.1     1  LIG1       -0.1908
     13 C          -2.6846    1.5410   -0.0003 C.1     1  LIG1        0.1013
     14 C          -6.6757    1.3165    0.6062 C.ar    1  LIG1        0.1263
     15 C          -5.4065    1.3366   -0.0004 C.ar    1  LIG1        0.0429
     16 C          -4.9717    2.5213   -0.5975 C.ar    1  LIG1       -0.0263
     17 C          -5.8117    3.6358   -0.5691 C.ar    1  LIG1        0.0548
     18 C          -7.0637    3.5172    0.0617 C.ar    1  LIG1        0.1305
     19 N          -7.4990    2.3822    0.6429 N.ar    1  LIG1       -0.2268
     20 H          -3.9865    2.5747   -1.0821 H       1  LIG1        0.0644
     21 N          -7.1245    0.2372    1.1752 N.pl3   1  LIG1       -0.3426
     22 H          -8.0727    0.0834    0.8973 H       1  LIG1        0.1437
     23 H          -6.5648   -0.5435    0.8972 H       1  LIG1        0.1437
     24 N          -5.4530    4.7617   -1.1111 N.pl3   1  LIG1       -0.3562
     25 H          -4.6427    4.6153   -1.6785 H       1  LIG1        0.1424
     26 H          -6.1986    5.1110   -1.6785 H       1  LIG1        0.1424
     27 C          -7.8808    4.5269    0.1141 C.ar    1  LIG1        0.1774
     28 C          -8.3746    5.4405   -0.7939 C.ar    1  LIG1        0.0888
     29 C          -9.2618    6.3178   -0.0590 C.ar    1  LIG1        0.0917
     30 C          -9.2514    5.8818    1.2500 C.ar    1  LIG1        0.1530
     31 O          -8.4073    4.7786    1.3818 O.2     1  LIG1       -0.4500
     32 N          -8.1119    5.5210   -2.0646 N.pl3   1  LIG1       -0.3540
     33 H          -8.2459    4.6260   -2.4900 H       1  LIG1        0.1425
     34 H          -8.7243    6.1873   -2.4900 H       1  LIG1        0.1425
     35 C          -9.9271    7.3157   -0.5605 C.1     1  LIG1       -0.0640
     36 C         -10.5419    8.2378   -1.0239 C.1     1  LIG1       -0.1137
     37 H         -11.0895    9.0591   -1.4367 H       1  LIG1        0.1232
     38 C         -10.6393    5.3404    3.0623 C.ar    1  LIG1       -0.0510
     39 C         -11.2446    5.7899    4.2518 C.ar    1  LIG1       -0.0599
     40 C          -9.8295    6.2516    2.3541 C.ar    1  LIG1        0.0198
     41 C         -11.0529    7.0887    4.7177 C.ar    1  LIG1       -0.0443
     42 H         -11.8736    5.1031    4.8138 H       1  LIG1        0.0618
     43 C          -9.6378    7.5483    2.8187 C.ar    1  LIG1       -0.0336
     44 C         -10.2474    7.9760    4.0028 C.ar    1  LIG1        0.0524
     45 H          -9.0088    8.2323    2.2546 H       1  LIG1        0.0637
     46 H         -11.6269    7.4703    5.8199 H       1  LIG1        0.0630
     47 H         -10.8554    4.1173    2.6785 H       1  LIG1        0.0625
     48 N          -9.9035   10.2595    4.8110 N.1     1  LIG1       -0.1909
     49 C         -10.0647    9.1893    4.4322 C.1     1  LIG1        0.0992
@<TRIPOS>BOND
     1    34    32    1
     2    33    32    1
     3    32    28    1
     4    26    24    1
     5    25    24    1
     6    37    36    1
     7    24    17    1
     8    20    16    1
     9    36    35    3
    10    28    29   ar
    11    28    27   ar
    12    16    17   ar
    13    16    15   ar
    14    17    18   ar
    15    35    29    1
    16    11     9    1
    17    10     9    1
    18    29    30   ar
    19     7     3    1
    20    12    13    3
    21    15     5    1
    22    15    14   ar
    23    13     4    1
    24     5     6   ar
    25     5     4   ar
    26     6     1   ar
    27     4     3   ar
    28     1     2   ar
    29     1     9    1
    30     2     3   ar
    31     2     8    1
    32    18    27    1
    33    18    19   ar
    34    27    31   ar
    35    14    19   ar
    36    14    21    1
    37    23    21    1
    38    22    21    1
    39    30    31   ar
    40    30    40    1
    41    45    43    1
    42    40    43   ar
    43    40    38   ar
    44    47    38    1
    45    43    44   ar
    46    38    39   ar
    47    44    49    1
    48    44    41   ar
    49    39    41   ar
    50    39    42    1
    51    49    48    3
    52    41    46    1
