@<TRIPOS>MOLECULE
mol_data/noopt/geoms/mol2/6hd6hd-6hd-6hd.out
 50 53 0 0 0
SMALL
GASTEIGER

@<TRIPOS>ATOM
      1 C          -4.5775   -2.0270    0.0001 C.ar    1  LIG1        0.1168
      2 C          -3.1706   -2.0270    0.0001 C.ar    1  LIG1       -0.0215
      3 C          -2.5039   -0.8004    0.0001 C.ar    1  LIG1       -0.0478
      4 C          -3.2580    0.3743   -0.0001 C.ar    1  LIG1        0.0210
      5 C          -4.6612    0.2715   -0.0003 C.ar    1  LIG1        0.0851
      6 N          -5.3207   -0.9034   -0.0001 N.ar    1  LIG1       -0.2317
      7 H          -1.4054   -0.7607   -0.0009 H       1  LIG1        0.0626
      8 H          -2.5135   -3.1487    0.0004 H       1  LIG1        0.0652
      9 N          -5.2431   -3.1437    0.0002 N.pl3   1  LIG1       -0.3431
     10 H          -6.1151   -3.0120   -0.4712 H       1  LIG1        0.1437
     11 H          -4.7125   -3.8481   -0.4712 H       1  LIG1        0.1437
     12 N          -2.1789    2.5700   -0.0005 N.2     1  LIG1       -0.1570
     13 C          -2.6846    1.5410   -0.0003 C.2     1  LIG1        0.0591
     14 C          -4.8196    2.6153   -0.0003 C.ar    1  LIG1        0.1449
     15 C          -5.4065    1.3366   -0.0004 C.ar    1  LIG1        0.0434
     16 C          -6.7994    1.2424   -0.0003 C.ar    1  LIG1       -0.0297
     17 C          -7.5524    2.4178   -0.0003 C.ar    1  LIG1        0.0785
     18 C          -6.8736    3.6502   -0.0004 C.ar    1  LIG1        0.0938
     19 N          -5.5307    3.7594   -0.0003 N.ar    1  LIG1       -0.2287
     20 H          -7.2937    0.2606   -0.0014 H       1  LIG1        0.0639
     21 N          -3.5270    2.7543   -0.0003 N.pl3   1  LIG1       -0.2488
     22 H          -3.1083    1.9782   -0.4717 H       1  LIG1        0.0855
     23 H          -3.2830    3.6018   -0.4717 H       1  LIG1        0.1715
     24 N          -9.9982    2.3530   -0.0005 N.1     1  LIG1       -0.1908
     25 C          -8.8520    2.3834   -0.0004 C.1     1  LIG1        0.1013
     26 C          -6.8427    5.9991   -0.0000 C.ar    1  LIG1        0.1261
     27 C          -7.5307    4.7719   -0.0003 C.ar    1  LIG1        0.0418
     28 C          -8.9267    4.7902   -0.0001 C.ar    1  LIG1       -0.0385
     29 C          -9.5826    6.0224    0.0002 C.ar    1  LIG1        0.0216
     30 C          -8.8067    7.1961    0.0002 C.ar    1  LIG1        0.0851
     31 N          -7.4594    7.1968    0.0002 N.ar    1  LIG1       -0.2310
     32 H          -9.4985    3.8514   -0.0012 H       1  LIG1        0.0632
     33 N          -5.5432    6.0336   -0.0001 N.pl3   1  LIG1       -0.3426
     34 H          -5.1884    5.2262   -0.4716 H       1  LIG1        0.1437
     35 H          -5.2317    6.8586   -0.4716 H       1  LIG1        0.1437
     36 N         -12.0256    6.1548    0.0002 N.2     1  LIG1       -0.1570
     37 C         -10.8807    6.0928    0.0002 C.2     1  LIG1        0.0591
     38 C         -10.7737    8.4804    0.0008 C.ar    1  LIG1        0.1441
     39 C          -9.3714    8.3671    0.0005 C.ar    1  LIG1        0.0434
     40 C          -8.6080    9.5360    0.0008 C.ar    1  LIG1       -0.0303
     41 C          -9.2650   10.7676    0.0012 C.ar    1  LIG1        0.0706
     42 C         -10.6720   10.7782    0.0013 C.ar    1  LIG1        0.0471
     43 N         -11.4240    9.6602    0.0012 N.ar    1  LIG1       -0.2371
     44 H          -7.5099    9.4871   -0.0004 H       1  LIG1        0.0638
     45 H         -11.3291   11.8999    0.0018 H       1  LIG1        0.0843
     46 N         -11.5271    7.4209    0.0006 N.pl3   1  LIG1       -0.2488
     47 H         -12.3856    7.6226   -0.4709 H       1  LIG1        0.1715
     48 H         -11.0548    6.6762   -0.4709 H       1  LIG1        0.0855
     49 N          -8.0125   12.8693    0.0015 N.1     1  LIG1       -0.1908
     50 C          -8.5995   11.8843    0.0014 C.1     1  LIG1        0.1007
@<TRIPOS>BOND
     1    23    21    1
     2    22    13    1
     3    35    33    1
     4    34    33    1
     5    11     9    1
     6    10     9    1
     7    48    37    1
     8    47    46    1
     9    20    16    1
    10    32    28    1
    11     7     3    1
    12    24    25    3
    13    12    13    2
    14    44    40    1
    15    15    16   ar
    16    15     5    1
    17    15    14   ar
    18    25    17    1
    19    18    17   ar
    20    18    27    1
    21    18    19   ar
    22    16    17   ar
    23    13     4    1
    24     5     6   ar
    25     5     4   ar
    26    27    28   ar
    27    27    26   ar
    28    14    19   ar
    29    14    21    1
    30    33    26    1
    31     6     1   ar
    32     4     3   ar
    33    28    29   ar
    34    26    31   ar
    35     1     2   ar
    36     1     9    1
    37     2     3   ar
    38     2     8    1
    39    29    30   ar
    40    29    37    1
    41    30    31   ar
    42    30    39    1
    43    37    36    2
    44    39    38   ar
    45    39    40   ar
    46    46    38    1
    47    38    43   ar
    48    40    41   ar
    49    43    42   ar
    50    41    42   ar
    51    41    50    1
    52    42    45    1
    53    50    49    3
