@<TRIPOS>MOLECULE
mol_data/noopt/geoms/mol2/6hd6hd-.out
 26 27 0 0 0
SMALL
GASTEIGER

@<TRIPOS>ATOM
      1 C          -4.5775   -2.0270    0.0001 C.ar    1  LIG1        0.1168
      2 C          -3.1706   -2.0270    0.0001 C.ar    1  LIG1       -0.0215
      3 C          -2.5039   -0.8004    0.0001 C.ar    1  LIG1       -0.0478
      4 C          -3.2580    0.3743   -0.0001 C.ar    1  LIG1        0.0210
      5 C          -4.6612    0.2715   -0.0003 C.ar    1  LIG1        0.0851
      6 N          -5.3207   -0.9034   -0.0001 N.ar    1  LIG1       -0.2317
      7 H          -1.4054   -0.7607   -0.0009 H       1  LIG1        0.0626
      8 H          -2.5135   -3.1487    0.0004 H       1  LIG1        0.0652
      9 N          -5.2431   -3.1437    0.0002 N.pl3   1  LIG1       -0.3431
     10 H          -6.1151   -3.0120   -0.4712 H       1  LIG1        0.1437
     11 H          -4.7125   -3.8481   -0.4712 H       1  LIG1        0.1437
     12 N          -2.1789    2.5700   -0.0005 N.2     1  LIG1       -0.1570
     13 C          -2.6846    1.5410   -0.0003 C.2     1  LIG1        0.0591
     14 C          -4.8196    2.6153   -0.0003 C.ar    1  LIG1        0.1441
     15 C          -5.4065    1.3366   -0.0004 C.ar    1  LIG1        0.0434
     16 C          -6.7994    1.2424   -0.0003 C.ar    1  LIG1       -0.0303
     17 C          -7.5524    2.4178   -0.0003 C.ar    1  LIG1        0.0706
     18 C          -6.8736    3.6502   -0.0004 C.ar    1  LIG1        0.0471
     19 N          -5.5307    3.7594   -0.0003 N.ar    1  LIG1       -0.2371
     20 H          -7.2937    0.2606   -0.0014 H       1  LIG1        0.0638
     21 H          -7.5307    4.7719   -0.0003 H       1  LIG1        0.0843
     22 N          -3.5270    2.7543   -0.0003 N.pl3   1  LIG1       -0.2488
     23 H          -3.1083    1.9782   -0.4717 H       1  LIG1        0.0855
     24 H          -3.2830    3.6018   -0.4717 H       1  LIG1        0.1715
     25 N          -9.9982    2.3530   -0.0005 N.1     1  LIG1       -0.1908
     26 C          -8.8520    2.3834   -0.0004 C.1     1  LIG1        0.1007
@<TRIPOS>BOND
     1    24    22    1
     2    23    13    1
     3    11     9    1
     4    10     9    1
     5    20    16    1
     6     7     3    1
     7    25    26    3
     8    12    13    2
     9    15    16   ar
    10    15     5    1
    11    15    14   ar
    12    26    17    1
    13    18    17   ar
    14    18    21    1
    15    18    19   ar
    16    16    17   ar
    17     5     6   ar
    18     5     4   ar
    19    13     4    1
    20    14    19   ar
    21    14    22    1
    22     6     1   ar
    23     4     3   ar
    24     1     2   ar
    25     1     9    1
    26     3     2   ar
    27     2     8    1
