@<TRIPOS>MOLECULE
mol_data/noopt/geoms/mol2/6hd6hd6hd.out
 38 40 0 0 0
SMALL
GASTEIGER

@<TRIPOS>ATOM
      1 C          -4.5775   -2.0270    0.0001 C.ar    1  LIG1        0.1169
      2 C          -3.1706   -2.0270    0.0001 C.ar    1  LIG1       -0.0208
      3 C          -2.5039   -0.8004    0.0001 C.ar    1  LIG1       -0.0390
      4 C          -3.2580    0.3743   -0.0001 C.ar    1  LIG1        0.0779
      5 C          -4.6612    0.2715   -0.0003 C.ar    1  LIG1        0.0937
      6 N          -5.3207   -0.9034   -0.0001 N.ar    1  LIG1       -0.2310
      7 H          -1.4054   -0.7607   -0.0009 H       1  LIG1        0.0632
      8 H          -2.5135   -3.1487    0.0004 H       1  LIG1        0.0652
      9 N          -5.2431   -3.1437    0.0002 N.pl3   1  LIG1       -0.3431
     10 H          -6.1151   -3.0120   -0.4712 H       1  LIG1        0.1437
     11 H          -4.7125   -3.8481   -0.4712 H       1  LIG1        0.1437
     12 N          -2.1789    2.5700   -0.0005 N.1     1  LIG1       -0.1908
     13 C          -2.6846    1.5410   -0.0003 C.1     1  LIG1        0.1013
     14 C          -6.8088    1.2233   -0.0003 C.ar    1  LIG1        0.1262
     15 C          -5.4065    1.3366   -0.0004 C.ar    1  LIG1        0.0424
     16 C          -4.8408    2.6129   -0.0003 C.ar    1  LIG1       -0.0298
     17 C          -5.6871    3.7231   -0.0003 C.ar    1  LIG1        0.0785
     18 C          -7.0774    3.5076   -0.0004 C.ar    1  LIG1        0.0937
     19 N          -7.6401    2.2834   -0.0003 N.ar    1  LIG1       -0.2304
     20 H          -3.7491    2.7410   -0.0014 H       1  LIG1        0.0639
     21 N          -7.3823    0.0566   -0.0003 N.pl3   1  LIG1       -0.3426
     22 H          -8.2621    0.1177   -0.4717 H       1  LIG1        0.1437
     23 H          -6.7967   -0.6027   -0.4717 H       1  LIG1        0.1437
     24 N          -4.7883    5.9986   -0.0004 N.1     1  LIG1       -0.1908
     25 C          -5.2095    4.9322   -0.0004 C.1     1  LIG1        0.1013
     26 C          -9.2948    4.2833   -0.0001 C.ar    1  LIG1        0.1255
     27 C          -7.9061    4.5092   -0.0003 C.ar    1  LIG1        0.0424
     28 C          -7.4450    5.8270   -0.0001 C.ar    1  LIG1       -0.0304
     29 C          -8.3780    6.8653    0.0002 C.ar    1  LIG1        0.0706
     30 C          -9.7465    6.5385    0.0002 C.ar    1  LIG1        0.0471
     31 N         -10.2087    5.2730    0.0002 N.ar    1  LIG1       -0.2388
     32 H          -6.3672    6.0425   -0.0012 H       1  LIG1        0.0638
     33 H         -10.6531    7.4701    0.0005 H       1  LIG1        0.0843
     34 N          -9.7724    3.0742   -0.0002 N.pl3   1  LIG1       -0.3426
     35 H         -10.6542    3.0642   -0.4716 H       1  LIG1        0.1437
     36 H          -9.1355    2.4643   -0.4716 H       1  LIG1        0.1437
     37 N          -7.6654    9.2059    0.0002 N.1     1  LIG1       -0.1908
     38 C          -7.9994    8.1090    0.0002 C.1     1  LIG1        0.1007
@<TRIPOS>BOND
     1    23    21    1
     2    22    21    1
     3    36    34    1
     4    35    34    1
     5    11     9    1
     6    10     9    1
     7    20    16    1
     8    32    28    1
     9     7     3    1
    10    12    13    3
    11    24    25    3
    12    15     5    1
    13    15    14   ar
    14    15    16   ar
    15    18    19   ar
    16    18    27    1
    17    18    17   ar
    18    25    17    1
    19     5     6   ar
    20     5     4   ar
    21    13     4    1
    22    14    21    1
    23    14    19   ar
    24    16    17   ar
    25    27    26   ar
    26    27    28   ar
    27    34    26    1
    28     6     1   ar
    29     4     3   ar
    30    26    31   ar
    31    28    29   ar
    32     1     2   ar
    33     1     9    1
    34     3     2   ar
    35     2     8    1
    36    31    30   ar
    37    30    29   ar
    38    30    33    1
    39    29    38    1
    40    38    37    3
