@<TRIPOS>MOLECULE
mol_data/noopt/geoms/mol2/6he13de13ll12de-.out
 52 55 0 0 0
SMALL
GASTEIGER

@<TRIPOS>ATOM
      1 C          -4.5775   -2.0270    0.0001 C.2     1  LIG1        0.3067
      2 C          -3.1706   -2.0270    0.0001 C.2     1  LIG1        0.0155
      3 C          -2.5039   -0.8004    0.0001 C.3     1  LIG1        0.0327
      4 C          -3.2580    0.3743   -0.0001 C.2     1  LIG1        0.0565
      5 C          -4.6612    0.2715   -0.0003 C.2     1  LIG1        0.2111
      6 N          -5.3207   -0.9034   -0.0001 N.2     1  LIG1       -0.0397
      7 H          -1.4054   -0.7607   -0.0009 H       1  LIG1        0.0411
      8 H          -2.5135   -3.1487    0.0004 H       1  LIG1        0.0659
      9 N          -5.2431   -3.1437    0.0002 N.pl3   1  LIG1       -0.2469
     10 H          -6.1151   -3.0120   -0.4712 H       1  LIG1        0.2884
     11 H          -4.7125   -3.8481   -0.4712 H       1  LIG1        0.2884
     12 C          -2.6846    1.5410   -0.0003 C.1     1  LIG1       -0.0946
     13 C          -2.1548    2.6190   -0.0005 C.2     1  LIG1        0.0549
     14 H          -1.6828    3.5793   -0.0006 H       1  LIG1        0.0888
     15 C          -5.4065    1.3366   -0.0004 C.ar    1  LIG1        0.0982
     16 C          -5.0646    2.6523   -0.0008 C.ar    1  LIG1        0.0201
     17 C          -6.2797    3.4100    0.0004 C.ar    1  LIG1        0.0175
     18 C          -7.3108    2.5240   -0.0003 C.ar    1  LIG1        0.0756
     19 N          -6.7806    1.2535   -0.0003 N.ar    1  LIG1       -0.3492
     20 H          -7.3066    0.4100   -0.0008 H       1  LIG1        0.1661
     21 N          -2.7897    3.5528   -0.0006 N.pl3   1  LIG1       -0.2335
     22 C          -3.8559    3.1308   -0.0007 C.3     1  LIG1        0.1401
     23 C          -6.3821    4.7060    0.0014 C.3     1  LIG1       -0.0163
     24 C          -6.4767    5.9034    0.0024 C.3     1  LIG1       -0.0273
     25 H          -6.5610    6.9701    0.0032 H       1  LIG1        0.0312
     26 C          -8.5953    2.7244    0.0002 C.ar    1  LIG1        0.1151
     27 C          -9.3072    3.8824    0.0168 C.ar    1  LIG1        0.2475
     28 C         -10.6954    3.5311    0.0096 C.ar    1  LIG1        0.1958
     29 C         -10.7707    2.1739   -0.0129 C.ar    1  LIG1        0.1300
     30 N          -9.4872    1.6761   -0.0182 N.ar    1  LIG1       -0.3445
     31 H          -9.2433    0.7126   -0.0336 H       1  LIG1        0.1663
     32 O          -8.8148    5.0854    0.0371 O.3     1  LIG1       -0.2817
     33 C          -7.3865    5.0165    0.0444 C.3     1  LIG1       -0.0582
     34 H          -6.9816    6.0068    0.0610 H       1  LIG1        0.0236
     35 H          -7.0596    4.4830    0.9125 H       1  LIG1        0.0236
     36 H          -7.0494    4.5080   -0.8346 H       1  LIG1        0.0236
     37 O         -11.7009    4.3550    0.0217 O.3     1  LIG1       -0.4893
     38 C         -11.2157    5.7002    0.0261 C.3     1  LIG1        0.0791
     39 H         -12.0436    6.3780    0.0359 H       1  LIG1        0.0660
     40 H         -10.6140    5.8595    0.8965 H       1  LIG1        0.0660
     41 H         -10.6264    5.8696   -0.8508 H       1  LIG1        0.0660
     42 C         -11.8051    1.3866   -0.0270 C.ar    1  LIG1        0.1731
     43 C         -13.1736    1.5607   -0.0230 C.ar    1  LIG1        0.1143
     44 C         -13.7602    0.2370   -0.0475 C.ar    1  LIG1        0.0804
     45 C         -12.7108   -0.6586   -0.0650 C.ar    1  LIG1        0.1093
     46 O         -11.4951    0.0261   -0.0530 O.2     1  LIG1       -0.4587
     47 H         -12.5985   -1.9535   -0.0894 H       1  LIG1        0.1042
     48 N         -14.4148    3.6687    0.0175 N.1     1  LIG1       -0.1907
     49 C         -13.8331    2.6808   -0.0015 C.1     1  LIG1        0.1043
     50 C         -15.0330   -0.0277   -0.0517 C.1     1  LIG1       -0.0652
     51 C         -16.2090   -0.2722   -0.0556 C.1     1  LIG1       -0.1138
     52 H         -17.2566   -0.4901   -0.0591 H       1  LIG1        0.1232
@<TRIPOS>BOND
     1    41    38    1
     2    36    33    1
     3    11     9    1
     4    10     9    1
     5    47    45    1
     6    45    46   ar
     7    45    44   ar
     8    52    51    1
     9    51    50    3
    10    46    42   ar
    11    50    44    1
    12    44    43   ar
    13    31    30    1
    14    42    43   ar
    15    42    29    1
    16    43    49    1
    17    30    29   ar
    18    30    26   ar
    19    29    28   ar
    20    49    48    3
    21     7     3    1
    22    16    22    1
    23    16    15   ar
    24    16    17   ar
    25    20    19    1
    26    22    21    1
    27    14    13    1
    28    21    13    1
    29    13    12    2
    30    15     5    1
    31    15    19   ar
    32    12     4    2
    33     5     6    2
    34     5     4    1
    35    19    18   ar
    36    18    26    1
    37    18    17   ar
    38     6     1    1
    39     4     3    1
    40     1     2    2
    41     1     9    1
    42     2     3    1
    43     2     8    1
    44    26    27   ar
    45    23    24    1
    46    23    33    1
    47    24    25    1
    48    28    27   ar
    49    28    37    1
    50    27    32    1
    51    37    38    1
    52    38    39    1
    53    38    40    1
    54    33    34    1
    55    33    35    1
