@<TRIPOS>MOLECULE
mol_data/noopt/geoms/mol2/6he13da-12hh12fl.out
 47 51 0 0 0
SMALL
GASTEIGER

@<TRIPOS>ATOM
      1 C          -4.5775   -2.0270    0.0001 C.2     1  LIG1        0.3067
      2 C          -3.1706   -2.0270    0.0001 C.2     1  LIG1        0.0155
      3 C          -2.5039   -0.8004    0.0001 C.3     1  LIG1        0.0327
      4 C          -3.2580    0.3743   -0.0001 C.2     1  LIG1        0.0565
      5 C          -4.6612    0.2715   -0.0003 C.2     1  LIG1        0.2111
      6 N          -5.3207   -0.9034   -0.0001 N.2     1  LIG1       -0.0397
      7 H          -1.4054   -0.7607   -0.0009 H       1  LIG1        0.0411
      8 H          -2.5135   -3.1487    0.0004 H       1  LIG1        0.0659
      9 N          -5.2431   -3.1437    0.0002 N.pl3   1  LIG1       -0.2469
     10 H          -6.1151   -3.0120   -0.4712 H       1  LIG1        0.2884
     11 H          -4.7125   -3.8481   -0.4712 H       1  LIG1        0.2884
     12 C          -2.6846    1.5410   -0.0003 C.1     1  LIG1       -0.0946
     13 C          -2.1548    2.6190   -0.0005 C.2     1  LIG1        0.0549
     14 H          -1.6828    3.5793   -0.0006 H       1  LIG1        0.0888
     15 C          -5.4065    1.3366   -0.0004 C.ar    1  LIG1        0.0976
     16 C          -5.0647    2.6523    0.0158 C.ar    1  LIG1        0.0123
     17 C          -6.2798    3.4100    0.0080 C.ar    1  LIG1       -0.0272
     18 C          -7.3107    2.5241   -0.0144 C.ar    1  LIG1        0.0849
     19 N          -6.7805    1.2536   -0.0191 N.ar    1  LIG1       -0.3485
     20 H          -7.3063    0.4102   -0.0343 H       1  LIG1        0.1661
     21 N          -2.7901    3.5526    0.0542 N.pl3   1  LIG1       -0.2335
     22 C          -3.8561    3.1306    0.0362 C.3     1  LIG1        0.1395
     23 H          -6.3823    4.7059    0.0196 H       1  LIG1        0.0643
     24 C          -8.5950    2.7246   -0.0290 C.ar    1  LIG1        0.1743
     25 C          -9.4176    3.8320   -0.0252 C.ar    1  LIG1        0.0942
     26 C         -10.7785    3.3380   -0.0501 C.ar    1  LIG1        0.0959
     27 C         -10.6973    1.9608   -0.0675 C.ar    1  LIG1        0.1968
     28 O          -9.3614    1.5585   -0.0551 O.2     1  LIG1       -0.4463
     29 N          -9.0667    5.0836   -0.0036 N.pl3   1  LIG1       -0.3535
     30 H          -8.1885    5.1917   -0.4695 H       1  LIG1        0.1425
     31 H          -9.7608    5.6324   -0.4695 H       1  LIG1        0.1425
     32 N         -11.8512    4.0725   -0.0547 N.pl3   1  LIG1       -0.3535
     33 H         -11.6635    4.9335   -0.5273 H       1  LIG1        0.1425
     34 H         -12.5861    3.5862   -0.5273 H       1  LIG1        0.1425
     35 C         -11.5533    0.9827   -0.0921 C.ar    1  LIG1        0.2165
     36 C         -12.9289    0.8800   -0.1107 C.ar    1  LIG1        0.2085
     37 C         -13.2389   -0.5343   -0.1347 C.ar    1  LIG1        0.2002
     38 C         -12.0317   -1.2023   -0.1293 C.ar    1  LIG1        0.1381
     39 O         -10.9776   -0.2885   -0.1032 O.2     1  LIG1       -0.4522
     40 H         -11.6627   -2.4488   -0.1424 H       1  LIG1        0.1069
     41 O         -13.7990    1.8459   -0.1077 O.3     1  LIG1       -0.5007
     42 H         -14.6858    1.4782   -0.1070 H       1  LIG1        0.2924
     43 O         -14.4330   -1.0479   -0.1569 O.3     1  LIG1       -0.4888
     44 C         -15.4040    0.0018   -0.1651 C.3     1  LIG1        0.0791
     45 H         -16.3866   -0.4213   -0.1835 H       1  LIG1        0.0660
     46 H         -15.2898    0.6002    0.7146 H       1  LIG1        0.0660
     47 H         -15.2622    0.6121   -1.0325 H       1  LIG1        0.0660
@<TRIPOS>BOND
     1    47    44    1
     2    34    32    1
     3    33    32    1
     4    11     9    1
     5    10     9    1
     6    31    29    1
     7    30    29    1
     8    45    44    1
     9    44    43    1
    10    44    46    1
    11    43    37    1
    12    40    38    1
    13    37    38   ar
    14    37    36   ar
    15    38    39   ar
    16    36    41    1
    17    36    35   ar
    18    41    42    1
    19    39    35   ar
    20    35    27    1
    21    27    28   ar
    22    27    26   ar
    23    28    24   ar
    24    32    26    1
    25    26    25   ar
    26    20    19    1
    27    24    25   ar
    28    24    18    1
    29    25    29    1
    30    19    18   ar
    31    19    15   ar
    32    18    17   ar
    33     7     3    1
    34    14    13    1
    35    13    12    2
    36    13    21    1
    37    15     5    1
    38    15    16   ar
    39     5     4    1
    40     5     6    2
    41    12     4    2
    42     4     3    1
    43     6     1    1
    44     2     3    1
    45     2     1    2
    46     2     8    1
    47     1     9    1
    48    17    16   ar
    49    17    23    1
    50    16    22    1
    51    22    21    1
