@<TRIPOS>MOLECULE
mol_data/noopt/geoms/mol2/6he12ie(300)12ia(80)4ea(320).out
 49 52 0 0 0
SMALL
GASTEIGER

@<TRIPOS>ATOM
      1 C          -4.5775   -2.0270    0.0001 C.ar    1  LIG1        0.1170
      2 C          -3.1706   -2.0270    0.0001 C.ar    1  LIG1       -0.0209
      3 C          -2.5039   -0.8004    0.0001 C.ar    1  LIG1       -0.0409
      4 C          -3.2580    0.3743   -0.0001 C.ar    1  LIG1        0.0538
      5 C          -4.6612    0.2715   -0.0003 C.ar    1  LIG1        0.1237
      6 N          -5.3207   -0.9034   -0.0001 N.ar    1  LIG1       -0.2281
      7 H          -1.4054   -0.7607   -0.0009 H       1  LIG1        0.0631
      8 H          -2.5135   -3.1487    0.0004 H       1  LIG1        0.0652
      9 N          -5.2431   -3.1437    0.0002 N.pl3   1  LIG1       -0.3431
     10 H          -6.1151   -3.0120   -0.4712 H       1  LIG1        0.1437
     11 H          -4.7125   -3.8481   -0.4712 H       1  LIG1        0.1437
     12 C          -2.6846    1.5410   -0.0003 C.1     1  LIG1       -0.0674
     13 C          -2.1548    2.6190   -0.0005 C.1     1  LIG1       -0.1138
     14 H          -1.6828    3.5793   -0.0006 H       1  LIG1        0.1232
     15 C          -5.4065    1.3366   -0.0004 C.ar    1  LIG1        0.1593
     16 C          -5.5341    2.4475   -0.8083 C.ar    1  LIG1        0.0130
     17 C          -6.5762    3.2668   -0.2255 C.ar    1  LIG1        0.0770
     18 C          -7.0166    2.6018    0.9003 C.ar    1  LIG1        0.1864
     19 O          -6.3107    1.4089    1.0602 O.2     1  LIG1       -0.4486
     20 C          -4.8636    2.7288   -1.8863 C.3     1  LIG1       -0.0349
     21 H          -4.6320    3.7734   -1.8999 H       1  LIG1        0.0279
     22 H          -5.4509    2.4825   -2.7461 H       1  LIG1        0.0279
     23 H          -3.9561    2.1621   -1.8999 H       1  LIG1        0.0279
     24 C          -6.9961    4.4047   -0.6934 C.1     1  LIG1       -0.0655
     25 C          -7.3841    5.4560   -1.1257 C.1     1  LIG1       -0.1138
     26 H          -7.7297    6.3926   -1.5108 H       1  LIG1        0.1232
     27 C          -7.9105    2.8248    1.8175 C.ar    1  LIG1        0.1747
     28 C          -7.8912    3.0167    3.1835 C.ar    1  LIG1       -0.0010
     29 C          -9.2654    3.2176    3.5935 C.ar    1  LIG1       -0.0122
     30 C         -10.0336    3.1351    2.4504 C.ar    1  LIG1        0.1373
     31 O          -9.2209    2.8935    1.3423 O.2     1  LIG1       -0.4514
     32 C          -6.8573    3.0213    3.9720 C.3     1  LIG1       -0.0360
     33 H          -6.8834    3.8948    4.5894 H       1  LIG1        0.0279
     34 H          -5.9619    3.0253    3.3861 H       1  LIG1        0.0279
     35 H          -6.8757    2.1475    4.5893 H       1  LIG1        0.0279
     36 H          -9.6693    3.4323    4.8104 H       1  LIG1        0.0658
     37 C         -11.7535    4.2005    1.2626 C.ar    1  LIG1        0.0353
     38 C         -13.1362    4.2615    1.0021 C.ar    1  LIG1       -0.0456
     39 C         -11.3012    3.2279    2.1777 C.ar    1  LIG1        0.0326
     40 C         -14.0307    3.3932    1.6237 C.ar    1  LIG1       -0.0606
     41 H         -13.5065    5.0046    0.2995 H       1  LIG1        0.0630
     42 C         -12.1939    2.3608    2.7984 C.ar    1  LIG1       -0.0499
     43 C         -13.5638    2.4369    2.5263 C.ar    1  LIG1       -0.0610
     44 H         -11.8205    1.6195    3.5004 H       1  LIG1        0.0625
     45 H         -15.3009    3.4773    1.3598 H       1  LIG1        0.0618
     46 C         -10.9682    5.0372    0.6517 C.1     1  LIG1       -0.0690
     47 C         -10.2426    5.8104    0.0873 C.1     1  LIG1       -0.1139
     48 H          -9.5963    6.4992   -0.4155 H       1  LIG1        0.1232
     49 H         -14.3935    1.6237    3.1097 H       1  LIG1        0.0618
@<TRIPOS>BOND
     1    22    20    1
     2    21    20    1
     3    23    20    1
     4    20    16    1
     5    26    25    1
     6    25    24    3
     7    16    17   ar
     8    16    15   ar
     9    24    17    1
    10    11     9    1
    11    10     9    1
    12    48    47    1
    13    17    18   ar
    14     7     3    1
    15    14    13    1
    16    13    12    3
    17    15     5    1
    18    15    19   ar
    19    12     4    1
    20     5     6   ar
    21     5     4   ar
    22     6     1   ar
    23     4     3   ar
    24     1     2   ar
    25     1     9    1
    26     3     2   ar
    27     2     8    1
    28    47    46    3
    29    41    38    1
    30    46    37    1
    31    18    19   ar
    32    18    27    1
    33    38    37   ar
    34    38    40   ar
    35    37    39   ar
    36    31    27   ar
    37    31    30   ar
    38    45    40    1
    39    40    43   ar
    40    27    28   ar
    41    39    30    1
    42    39    42   ar
    43    30    29   ar
    44    43    42   ar
    45    43    49    1
    46    42    44    1
    47    28    29   ar
    48    28    32    1
    49    34    32    1
    50    29    36    1
    51    32    35    1
    52    32    33    1
