@<TRIPOS>MOLECULE
mol_data/noopt/geoms/mol2/6he4fh-13ii-6ha-.out
 53 56 0 0 0
SMALL
GASTEIGER

@<TRIPOS>ATOM
      1 C          -4.5775   -2.0270    0.0001 C.ar    1  LIG1        0.1169
      2 C          -3.1706   -2.0270    0.0001 C.ar    1  LIG1       -0.0209
      3 C          -2.5039   -0.8004    0.0001 C.ar    1  LIG1       -0.0410
      4 C          -3.2580    0.3743   -0.0001 C.ar    1  LIG1        0.0509
      5 C          -4.6612    0.2715   -0.0003 C.ar    1  LIG1        0.0919
      6 N          -5.3207   -0.9034   -0.0001 N.ar    1  LIG1       -0.2311
      7 H          -1.4054   -0.7607   -0.0009 H       1  LIG1        0.0631
      8 H          -2.5135   -3.1487    0.0004 H       1  LIG1        0.0652
      9 N          -5.2431   -3.1437    0.0002 N.pl3   1  LIG1       -0.3431
     10 H          -6.1151   -3.0120   -0.4712 H       1  LIG1        0.1437
     11 H          -4.7125   -3.8481   -0.4712 H       1  LIG1        0.1437
     12 C          -2.6846    1.5410   -0.0003 C.1     1  LIG1       -0.0675
     13 C          -2.1548    2.6190   -0.0005 C.1     1  LIG1       -0.1138
     14 H          -1.6828    3.5793   -0.0006 H       1  LIG1        0.1232
     15 C          -4.8078    2.6129    0.0216 C.ar    1  LIG1        0.1268
     16 C          -5.6586    3.7351    0.0221 C.ar    1  LIG1       -0.0086
     17 C          -5.4065    1.3366   -0.0004 C.ar    1  LIG1        0.0448
     18 C          -7.0444    3.5952    0.0010 C.ar    1  LIG1        0.0227
     19 H          -5.2175    4.7293    0.0391 H       1  LIG1        0.0661
     20 C          -6.7900    1.1963   -0.0215 C.ar    1  LIG1       -0.0277
     21 C          -7.6183    2.3234   -0.0211 C.ar    1  LIG1        0.0346
     22 H          -7.2275    0.2014   -0.0382 H       1  LIG1        0.0644
     23 O          -3.5225    2.8070    0.0417 O.3     1  LIG1       -0.5061
     24 H          -3.3409    3.7497    0.0466 H       1  LIG1        0.2922
     25 N          -8.9109    2.1862   -0.0407 N.pl3   1  LIG1       -0.3574
     26 H          -9.3214    2.9637   -0.5171 H       1  LIG1        0.1423
     27 H          -9.1490    1.3398   -0.5171 H       1  LIG1        0.1423
     28 C          -7.8001    4.6531    0.0019 C.ar    1  LIG1        0.0520
     29 C          -7.4710    5.9719    0.0189 C.ar    1  LIG1       -0.0216
     30 C          -8.6934    6.7178    0.0121 C.ar    1  LIG1       -0.0216
     31 C          -9.7157    5.8219   -0.0103 C.ar    1  LIG1        0.0534
     32 N          -9.1732    4.5567   -0.0162 N.ar    1  LIG1       -0.3536
     33 H          -9.6908    3.7082   -0.0317 H       1  LIG1        0.1659
     34 C          -6.2668    6.4621    0.0390 C.3     1  LIG1       -0.0374
     35 H          -6.2732    7.4028    0.5489 H       1  LIG1        0.0278
     36 H          -5.9220    6.6025   -0.9642 H       1  LIG1        0.0278
     37 H          -5.6144    5.7844    0.5489 H       1  LIG1        0.0278
     38 C          -8.8085    8.0129    0.0247 C.3     1  LIG1       -0.0374
     39 H          -9.7098    8.2860    0.5326 H       1  LIG1        0.0278
     40 H          -8.8410    8.3779   -0.9806 H       1  LIG1        0.0278
     41 H          -7.9694    8.4406    0.5325 H       1  LIG1        0.0278
     42 C         -11.8809    4.9118   -0.0527 C.ar    1  LIG1        0.1253
     43 C         -11.0019    6.0099   -0.0242 C.ar    1  LIG1        0.0381
     44 C         -11.5431    7.2968   -0.0108 C.ar    1  LIG1       -0.0479
     45 C         -12.9313    7.4422   -0.0265 C.ar    1  LIG1       -0.0428
     46 C         -13.7277    6.2827   -0.0552 C.ar    1  LIG1        0.0297
     47 N         -13.2224    5.0338   -0.0682 N.ar    1  LIG1       -0.2401
     48 H         -10.8878    8.1791    0.0105 H       1  LIG1        0.0626
     49 H         -15.0248    6.3665   -0.0706 H       1  LIG1        0.0830
     50 N         -11.4249    3.6944   -0.0659 N.pl3   1  LIG1       -0.3426
     51 H         -12.0743    3.1004   -0.5407 H       1  LIG1        0.1437
     52 H         -10.5451    3.6732   -0.5408 H       1  LIG1        0.1437
     53 H         -13.4839    8.6189   -0.0153 H       1  LIG1        0.0633
@<TRIPOS>BOND
     1    40    38    1
     2    36    34    1
     3    52    50    1
     4    51    50    1
     5    27    25    1
     6    26    25    1
     7    11     9    1
     8    10     9    1
     9    49    46    1
    10    47    46   ar
    11    47    42   ar
    12    50    42    1
    13    46    45   ar
    14    42    43   ar
    15    25    21    1
    16    22    20    1
    17    33    32    1
    18    45    53    1
    19    45    44   ar
    20    43    44   ar
    21    43    31    1
    22    20    21   ar
    23    20    17   ar
    24    21    18   ar
    25    32    31   ar
    26    32    28   ar
    27    44    48    1
    28    31    30   ar
    29     7     3    1
    30    14    13    1
    31    13    12    3
    32    17     5    1
    33    17    15   ar
    34    12     4    1
    35     5     6   ar
    36     5     4   ar
    37     6     1   ar
    38     4     3   ar
    39     1     2   ar
    40     1     9    1
    41     2     3   ar
    42     2     8    1
    43    18    28    1
    44    18    16   ar
    45    28    29   ar
    46    30    29   ar
    47    30    38    1
    48    29    34    1
    49    15    16   ar
    50    15    23    1
    51    16    19    1
    52    38    41    1
    53    38    39    1
    54    34    37    1
    55    34    35    1
    56    23    24    1
