@<TRIPOS>MOLECULE
mol_data/noopt/geoms/mol2/6he6he6he.out
 41 43 0 0 0
SMALL
GASTEIGER

@<TRIPOS>ATOM
      1 C          -4.5775   -2.0270    0.0001 C.ar    1  LIG1        0.1169
      2 C          -3.1706   -2.0270    0.0001 C.ar    1  LIG1       -0.0209
      3 C          -2.5039   -0.8004    0.0001 C.ar    1  LIG1       -0.0410
      4 C          -3.2580    0.3743   -0.0001 C.ar    1  LIG1        0.0508
      5 C          -4.6612    0.2715   -0.0003 C.ar    1  LIG1        0.0917
      6 N          -5.3207   -0.9034   -0.0001 N.ar    1  LIG1       -0.2311
      7 H          -1.4054   -0.7607   -0.0009 H       1  LIG1        0.0631
      8 H          -2.5135   -3.1487    0.0004 H       1  LIG1        0.0652
      9 N          -5.2431   -3.1437    0.0002 N.pl3   1  LIG1       -0.3431
     10 H          -6.1151   -3.0120   -0.4712 H       1  LIG1        0.1437
     11 H          -4.7125   -3.8481   -0.4712 H       1  LIG1        0.1437
     12 C          -2.6846    1.5410   -0.0003 C.1     1  LIG1       -0.0675
     13 C          -2.1548    2.6190   -0.0005 C.1     1  LIG1       -0.1138
     14 H          -1.6828    3.5793   -0.0006 H       1  LIG1        0.1232
     15 C          -6.8088    1.2233   -0.0003 C.ar    1  LIG1        0.1262
     16 C          -5.4065    1.3366   -0.0004 C.ar    1  LIG1        0.0423
     17 C          -4.8408    2.6129   -0.0003 C.ar    1  LIG1       -0.0317
     18 C          -5.6871    3.7231   -0.0003 C.ar    1  LIG1        0.0515
     19 C          -7.0774    3.5076   -0.0004 C.ar    1  LIG1        0.0918
     20 N          -7.6401    2.2834   -0.0003 N.ar    1  LIG1       -0.2304
     21 H          -3.7491    2.7410   -0.0014 H       1  LIG1        0.0638
     22 N          -7.3823    0.0566   -0.0003 N.pl3   1  LIG1       -0.3426
     23 H          -8.2621    0.1177   -0.4717 H       1  LIG1        0.1437
     24 H          -6.7967   -0.6027   -0.4717 H       1  LIG1        0.1437
     25 C          -5.2095    4.9322   -0.0004 C.1     1  LIG1       -0.0675
     26 C          -4.7682    6.0494   -0.0004 C.1     1  LIG1       -0.1138
     27 H          -4.3752    7.0446   -0.0005 H       1  LIG1        0.1232
     28 C          -9.2948    4.2833   -0.0001 C.ar    1  LIG1        0.1255
     29 C          -7.9061    4.5092   -0.0003 C.ar    1  LIG1        0.0423
     30 C          -7.4450    5.8270   -0.0001 C.ar    1  LIG1       -0.0324
     31 C          -8.3780    6.8653    0.0002 C.ar    1  LIG1        0.0435
     32 C          -9.7465    6.5385    0.0002 C.ar    1  LIG1        0.0451
     33 N         -10.2087    5.2730    0.0002 N.ar    1  LIG1       -0.2388
     34 H          -6.3672    6.0425   -0.0012 H       1  LIG1        0.0638
     35 H         -10.6531    7.4701    0.0005 H       1  LIG1        0.0843
     36 N          -9.7724    3.0742   -0.0002 N.pl3   1  LIG1       -0.3426
     37 H         -10.6542    3.0642   -0.4716 H       1  LIG1        0.1437
     38 H          -9.1355    2.4643   -0.4716 H       1  LIG1        0.1437
     39 C          -7.9994    8.1090    0.0002 C.1     1  LIG1       -0.0681
     40 C          -7.6495    9.2581    0.0002 C.1     1  LIG1       -0.1139
     41 H          -7.3379   10.2817    0.0002 H       1  LIG1        0.1232
@<TRIPOS>BOND
     1    24    22    1
     2    23    22    1
     3    38    36    1
     4    37    36    1
     5    11     9    1
     6    10     9    1
     7    21    17    1
     8    34    30    1
     9     7     3    1
    10    14    13    1
    11    27    26    1
    12    13    12    3
    13    26    25    3
    14    16     5    1
    15    16    15   ar
    16    16    17   ar
    17    19    20   ar
    18    19    29    1
    19    19    18   ar
    20    25    18    1
    21    12     4    1
    22     5     6   ar
    23     5     4   ar
    24    15    22    1
    25    15    20   ar
    26    17    18   ar
    27    29    28   ar
    28    29    30   ar
    29    36    28    1
    30     6     1   ar
    31     4     3   ar
    32    28    33   ar
    33    30    31   ar
    34     1     2   ar
    35     1     9    1
    36     3     2   ar
    37     2     8    1
    38    33    32   ar
    39    32    31   ar
    40    32    35    1
    41    31    39    1
    42    39    40    3
    43    40    41    1
