@<TRIPOS>MOLECULE
mol_data/noopt/geoms/mol2/6he6he-6he6he-.out
 54 57 0 0 0
SMALL
GASTEIGER

@<TRIPOS>ATOM
      1 C          -4.5775   -2.0270    0.0001 C.ar    1  LIG1        0.1168
      2 C          -3.1706   -2.0270    0.0001 C.ar    1  LIG1       -0.0218
      3 C          -2.5039   -0.8004    0.0001 C.ar    1  LIG1       -0.0530
      4 C          -3.2580    0.3743   -0.0001 C.ar    1  LIG1       -0.0172
      5 C          -4.6612    0.2715   -0.0003 C.ar    1  LIG1        0.0799
      6 N          -5.3207   -0.9034   -0.0001 N.ar    1  LIG1       -0.2321
      7 H          -1.4054   -0.7607   -0.0009 H       1  LIG1        0.0622
      8 H          -2.5135   -3.1487    0.0004 H       1  LIG1        0.0652
      9 N          -5.2431   -3.1437    0.0002 N.pl3   1  LIG1       -0.3431
     10 H          -6.1151   -3.0120   -0.4712 H       1  LIG1        0.1437
     11 H          -4.7125   -3.8481   -0.4712 H       1  LIG1        0.1437
     12 C          -2.6846    1.5410   -0.0003 C.3     1  LIG1       -0.0033
     13 C          -2.1548    2.6190   -0.0005 C.3     1  LIG1       -0.0262
     14 H          -1.6828    3.5793   -0.0006 H       1  LIG1        0.0313
     15 C          -4.8196    2.6153   -0.0003 C.ar    1  LIG1        0.1448
     16 C          -5.4065    1.3366   -0.0004 C.ar    1  LIG1        0.0421
     17 C          -6.7994    1.2424   -0.0003 C.ar    1  LIG1       -0.0437
     18 C          -7.5524    2.4178   -0.0003 C.ar    1  LIG1       -0.0166
     19 C          -6.8736    3.6502   -0.0004 C.ar    1  LIG1        0.0800
     20 N          -5.5307    3.7594   -0.0003 N.ar    1  LIG1       -0.2297
     21 H          -7.2937    0.2606   -0.0014 H       1  LIG1        0.0629
     22 N          -3.5270    2.7543   -0.0003 N.pl3   1  LIG1       -0.2488
     23 H          -3.1083    1.9782   -0.4717 H       1  LIG1        0.0358
     24 H          -3.2830    3.6018   -0.4717 H       1  LIG1        0.1715
     25 C          -8.8520    2.3834   -0.0004 C.3     1  LIG1       -0.0033
     26 C         -10.0528    2.3516   -0.0005 C.3     1  LIG1       -0.0262
     27 H         -11.1224    2.3232   -0.0006 H       1  LIG1        0.0313
     28 C          -8.9376    4.7719   -0.0001 C.ar    1  LIG1        0.1448
     29 C          -7.5307    4.7719   -0.0003 C.ar    1  LIG1        0.0421
     30 C          -6.8640    5.9985   -0.0001 C.ar    1  LIG1       -0.0437
     31 C          -7.6181    7.1732    0.0002 C.ar    1  LIG1       -0.0166
     32 C          -9.0213    7.0704    0.0002 C.ar    1  LIG1        0.0800
     33 N          -9.6808    5.8955    0.0002 N.ar    1  LIG1       -0.2297
     34 H          -5.7655    6.0382   -0.0012 H       1  LIG1        0.0629
     35 N          -9.6032    3.6552   -0.0002 N.pl3   1  LIG1       -0.2488
     36 H         -10.4752    3.7869   -0.4716 H       1  LIG1        0.1715
     37 H          -9.0726    2.9509   -0.4716 H       1  LIG1        0.0358
     38 C          -7.0447    8.3399    0.0002 C.3     1  LIG1       -0.0033
     39 C          -6.5149    9.4179    0.0002 C.3     1  LIG1       -0.0262
     40 H          -6.0430   10.3782    0.0002 H       1  LIG1        0.0313
     41 C          -9.1798    9.4141    0.0008 C.ar    1  LIG1        0.1441
     42 C          -9.7667    8.1355    0.0005 C.ar    1  LIG1        0.0430
     43 C         -11.1596    8.0413    0.0008 C.ar    1  LIG1       -0.0323
     44 C         -11.9126    9.2167    0.0012 C.ar    1  LIG1        0.0435
     45 C         -11.2338   10.4491    0.0013 C.ar    1  LIG1        0.0451
     46 N          -9.8909   10.5583    0.0012 N.ar    1  LIG1       -0.2372
     47 H         -11.6539    7.0595   -0.0005 H       1  LIG1        0.0638
     48 H         -11.8909   11.5707    0.0018 H       1  LIG1        0.0843
     49 N          -7.8872    9.5532    0.0006 N.pl3   1  LIG1       -0.2488
     50 H          -7.4685    8.7770   -0.4708 H       1  LIG1        0.0358
     51 H          -7.6432   10.4006   -0.4709 H       1  LIG1        0.1715
     52 C         -13.2121    9.1823    0.0013 C.1     1  LIG1       -0.0681
     53 C         -14.4129    9.1504    0.0015 C.1     1  LIG1       -0.1139
     54 H         -15.4825    9.1221    0.0015 H       1  LIG1        0.1232
@<TRIPOS>BOND
     1    24    22    1
     2    23    12    1
     3    37    25    1
     4    36    35    1
     5    11     9    1
     6    10     9    1
     7    51    49    1
     8    50    38    1
     9    21    17    1
    10    34    30    1
    11     7     3    1
    12    14    13    1
    13    27    26    1
    14    26    25    1
    15    13    12    1
    16    47    43    1
    17    16    17   ar
    18    16     5    1
    19    16    15   ar
    20    25    18    1
    21    19    18   ar
    22    19    29    1
    23    19    20   ar
    24    17    18   ar
    25    12     4    1
    26     5     6   ar
    27     5     4   ar
    28    29    28   ar
    29    29    30   ar
    30    15    20   ar
    31    15    22    1
    32    35    28    1
    33     6     1   ar
    34     4     3   ar
    35    28    33   ar
    36    30    31   ar
    37     1     2   ar
    38     1     9    1
    39     2     3   ar
    40     2     8    1
    41    33    32   ar
    42    32    31   ar
    43    32    42    1
    44    31    38    1
    45    38    39    1
    46    39    40    1
    47    42    43   ar
    48    42    41   ar
    49    49    41    1
    50    43    44   ar
    51    41    46   ar
    52    44    45   ar
    53    44    52    1
    54    46    45   ar
    55    45    48    1
    56    52    53    3
    57    53    54    1
