@<TRIPOS>MOLECULE
mol_data/noopt/geoms/mol2/6he6he6he6he-.out
 54 57 0 0 0
SMALL
GASTEIGER

@<TRIPOS>ATOM
      1 C          -4.5775   -2.0270    0.0001 C.ar    1  LIG1        0.1169
      2 C          -3.1706   -2.0270    0.0001 C.ar    1  LIG1       -0.0209
      3 C          -2.5039   -0.8004    0.0001 C.ar    1  LIG1       -0.0410
      4 C          -3.2580    0.3743   -0.0001 C.ar    1  LIG1        0.0508
      5 C          -4.6612    0.2715   -0.0003 C.ar    1  LIG1        0.0917
      6 N          -5.3207   -0.9034   -0.0001 N.ar    1  LIG1       -0.2311
      7 H          -1.4054   -0.7607   -0.0009 H       1  LIG1        0.0631
      8 H          -2.5135   -3.1487    0.0004 H       1  LIG1        0.0652
      9 N          -5.2431   -3.1437    0.0002 N.pl3   1  LIG1       -0.3431
     10 H          -6.1151   -3.0120   -0.4712 H       1  LIG1        0.1437
     11 H          -4.7125   -3.8481   -0.4712 H       1  LIG1        0.1437
     12 C          -2.6846    1.5410   -0.0003 C.1     1  LIG1       -0.0675
     13 C          -2.1548    2.6190   -0.0005 C.1     1  LIG1       -0.1138
     14 H          -1.6828    3.5793   -0.0006 H       1  LIG1        0.1232
     15 C          -6.8088    1.2233   -0.0003 C.ar    1  LIG1        0.1262
     16 C          -5.4065    1.3366   -0.0004 C.ar    1  LIG1        0.0423
     17 C          -4.8408    2.6129   -0.0003 C.ar    1  LIG1       -0.0317
     18 C          -5.6871    3.7231   -0.0003 C.ar    1  LIG1        0.0515
     19 C          -7.0774    3.5076   -0.0004 C.ar    1  LIG1        0.0917
     20 N          -7.6401    2.2834   -0.0003 N.ar    1  LIG1       -0.2304
     21 H          -3.7491    2.7410   -0.0014 H       1  LIG1        0.0638
     22 N          -7.3823    0.0566   -0.0003 N.pl3   1  LIG1       -0.3426
     23 H          -8.2621    0.1177   -0.4717 H       1  LIG1        0.1437
     24 H          -6.7967   -0.6027   -0.4717 H       1  LIG1        0.1437
     25 C          -5.2095    4.9322   -0.0004 C.1     1  LIG1       -0.0675
     26 C          -4.7682    6.0494   -0.0004 C.1     1  LIG1       -0.1138
     27 H          -4.3752    7.0446   -0.0005 H       1  LIG1        0.1232
     28 C          -9.2948    4.2833   -0.0001 C.ar    1  LIG1        0.1261
     29 C          -7.9061    4.5092   -0.0003 C.ar    1  LIG1        0.0414
     30 C          -7.4450    5.8270   -0.0001 C.ar    1  LIG1       -0.0437
     31 C          -8.3780    6.8653    0.0002 C.ar    1  LIG1       -0.0166
     32 C          -9.7465    6.5385    0.0002 C.ar    1  LIG1        0.0799
     33 N         -10.2087    5.2730    0.0002 N.ar    1  LIG1       -0.2314
     34 H          -6.3672    6.0425   -0.0012 H       1  LIG1        0.0629
     35 N          -9.7724    3.0742   -0.0002 N.pl3   1  LIG1       -0.3426
     36 H         -10.6542    3.0642   -0.4716 H       1  LIG1        0.1437
     37 H          -9.1355    2.4643   -0.4716 H       1  LIG1        0.1437
     38 C          -7.9994    8.1090    0.0002 C.3     1  LIG1       -0.0033
     39 C          -7.6495    9.2581    0.0002 C.3     1  LIG1       -0.0262
     40 H          -7.3379   10.2817    0.0002 H       1  LIG1        0.0313
     41 C         -10.2792    8.8264    0.0008 C.ar    1  LIG1        0.1441
     42 C         -10.6531    7.4702    0.0005 C.ar    1  LIG1        0.0430
     43 C         -12.0128    7.1535    0.0008 C.ar    1  LIG1       -0.0323
     44 C         -12.9448    8.1927    0.0012 C.ar    1  LIG1        0.0435
     45 C         -12.4727    9.5181    0.0013 C.ar    1  LIG1        0.0451
     46 N         -11.1648    9.8416    0.0012 N.ar    1  LIG1       -0.2372
     47 H         -12.3431    6.1051   -0.0005 H       1  LIG1        0.0638
     48 H         -13.3014   10.5197    0.0018 H       1  LIG1        0.0843
     49 N          -9.0257    9.1713    0.0006 N.pl3   1  LIG1       -0.2488
     50 H          -8.4878    8.4724   -0.4708 H       1  LIG1        0.0358
     51 H          -8.9209   10.0469   -0.4709 H       1  LIG1        0.1715
     52 C         -14.2220    7.9501    0.0013 C.1     1  LIG1       -0.0681
     53 C         -15.4021    7.7259    0.0014 C.1     1  LIG1       -0.1139
     54 H         -16.4533    7.5261    0.0015 H       1  LIG1        0.1232
@<TRIPOS>BOND
     1    24    22    1
     2    23    22    1
     3    37    35    1
     4    36    35    1
     5    11     9    1
     6    10     9    1
     7    51    49    1
     8    50    38    1
     9    21    17    1
    10    34    30    1
    11     7     3    1
    12    14    13    1
    13    27    26    1
    14    13    12    3
    15    47    43    1
    16    26    25    3
    17    16     5    1
    18    16    15   ar
    19    16    17   ar
    20    19    20   ar
    21    19    29    1
    22    19    18   ar
    23    25    18    1
    24    12     4    1
    25     5     6   ar
    26     5     4   ar
    27    15    22    1
    28    15    20   ar
    29    17    18   ar
    30    29    28   ar
    31    29    30   ar
    32    35    28    1
    33     6     1   ar
    34     4     3   ar
    35    28    33   ar
    36    30    31   ar
    37     1     2   ar
    38     1     9    1
    39     2     3   ar
    40     2     8    1
    41    33    32   ar
    42    32    31   ar
    43    32    42    1
    44    31    38    1
    45    38    39    1
    46    39    40    1
    47    42    43   ar
    48    42    41   ar
    49    49    41    1
    50    43    44   ar
    51    41    46   ar
    52    44    45   ar
    53    44    52    1
    54    46    45   ar
    55    45    48    1
    56    52    53    3
    57    53    54    1
