@<TRIPOS>MOLECULE
mol_data/noopt/geoms/mol2/6he6he-4he6he.out
 55 58 0 0 0
SMALL
GASTEIGER

@<TRIPOS>ATOM
      1 C          -4.5775   -2.0270    0.0001 C.ar    1  LIG1        0.1168
      2 C          -3.1706   -2.0270    0.0001 C.ar    1  LIG1       -0.0218
      3 C          -2.5039   -0.8004    0.0001 C.ar    1  LIG1       -0.0530
      4 C          -3.2580    0.3743   -0.0001 C.ar    1  LIG1       -0.0172
      5 C          -4.6612    0.2715   -0.0003 C.ar    1  LIG1        0.0799
      6 N          -5.3207   -0.9034   -0.0001 N.ar    1  LIG1       -0.2321
      7 H          -1.4054   -0.7607   -0.0009 H       1  LIG1        0.0622
      8 H          -2.5135   -3.1487    0.0004 H       1  LIG1        0.0652
      9 N          -5.2431   -3.1437    0.0002 N.pl3   1  LIG1       -0.3431
     10 H          -6.1151   -3.0120   -0.4712 H       1  LIG1        0.1437
     11 H          -4.7125   -3.8481   -0.4712 H       1  LIG1        0.1437
     12 C          -2.6846    1.5410   -0.0003 C.3     1  LIG1       -0.0033
     13 C          -2.1548    2.6190   -0.0005 C.3     1  LIG1       -0.0262
     14 H          -1.6828    3.5793   -0.0006 H       1  LIG1        0.0313
     15 C          -4.8196    2.6153   -0.0003 C.ar    1  LIG1        0.1448
     16 C          -5.4065    1.3366   -0.0004 C.ar    1  LIG1        0.0430
     17 C          -6.7994    1.2424   -0.0003 C.ar    1  LIG1       -0.0317
     18 C          -7.5524    2.4178   -0.0003 C.ar    1  LIG1        0.0514
     19 C          -6.8736    3.6502   -0.0004 C.ar    1  LIG1        0.0903
     20 N          -5.5307    3.7594   -0.0003 N.ar    1  LIG1       -0.2288
     21 H          -7.2937    0.2606   -0.0014 H       1  LIG1        0.0638
     22 N          -3.5270    2.7543   -0.0003 N.pl3   1  LIG1       -0.2488
     23 H          -3.1083    1.9782   -0.4717 H       1  LIG1        0.0358
     24 H          -3.2830    3.6018   -0.4717 H       1  LIG1        0.1715
     25 C          -8.8520    2.3834   -0.0004 C.1     1  LIG1       -0.0675
     26 C         -10.0528    2.3516   -0.0005 C.1     1  LIG1       -0.1138
     27 H         -11.1224    2.3232   -0.0006 H       1  LIG1        0.1232
     28 C          -6.8310    5.9958    0.0005 C.ar    1  LIG1        0.0345
     29 C          -7.5886    7.1830    0.0022 C.ar    1  LIG1       -0.0323
     30 C          -7.5307    4.7718   -0.0003 C.ar    1  LIG1        0.0225
     31 C          -8.9814    7.1551    0.0023 C.ar    1  LIG1       -0.0093
     32 H          -7.0688    8.1385    0.0030 H       1  LIG1        0.0642
     33 C          -8.9211    4.7434   -0.0001 C.ar    1  LIG1       -0.0467
     34 C          -9.6560    5.9336    0.0011 C.ar    1  LIG1       -0.0349
     35 H          -9.4376    3.7869   -0.0006 H       1  LIG1        0.0628
     36 N          -5.5341    6.0859    0.0002 N.pl3   1  LIG1       -0.3574
     37 H          -5.1452    5.2944   -0.4713 H       1  LIG1        0.1423
     38 H          -5.2583    6.9235   -0.4714 H       1  LIG1        0.1423
     39 C         -10.9556    5.9008    0.0014 C.3     1  LIG1       -0.0048
     40 C         -12.1564    5.8705    0.0017 C.3     1  LIG1       -0.0263
     41 H         -13.2261    5.8435    0.0020 H       1  LIG1        0.0313
     42 C         -11.0562    8.2567    0.0047 C.ar    1  LIG1        0.1427
     43 C          -9.6493    8.2703    0.0037 C.ar    1  LIG1        0.0248
     44 C          -8.9946    9.5034    0.0047 C.ar    1  LIG1       -0.0338
     45 C          -9.7600   10.6707    0.0063 C.ar    1  LIG1        0.0435
     46 C         -11.1621   10.5543    0.0069 C.ar    1  LIG1        0.0451
     47 N         -11.8102    9.3730    0.0062 N.ar    1  LIG1       -0.2372
     48 H          -7.8965    9.5537    0.0030 H       1  LIG1        0.0637
     49 H         -11.9177   11.6121    0.0085 H       1  LIG1        0.0843
     50 N         -11.7109    7.1336    0.0040 N.pl3   1  LIG1       -0.2488
     51 H         -12.5840    7.2571   -0.4676 H       1  LIG1        0.1715
     52 H         -11.1733    6.4347   -0.4677 H       1  LIG1        0.0358
     53 C          -9.1980   11.8429    0.0071 C.1     1  LIG1       -0.0681
     54 C          -8.6786   12.9260    0.0077 C.1     1  LIG1       -0.1139
     55 H          -8.2160   13.8909    0.0083 H       1  LIG1        0.1232
@<TRIPOS>BOND
     1    24    22    1
     2    23    12    1
     3    38    36    1
     4    37    36    1
     5    11     9    1
     6    10     9    1
     7    52    39    1
     8    51    50    1
     9    21    17    1
    10     7     3    1
    11    14    13    1
    12    35    33    1
    13    27    26    1
    14    26    25    3
    15    13    12    1
    16    16    17   ar
    17    16     5    1
    18    16    15   ar
    19    25    18    1
    20    19    18   ar
    21    19    30    1
    22    19    20   ar
    23    17    18   ar
    24    12     4    1
    25     5     6   ar
    26     5     4   ar
    27    30    33   ar
    28    30    28   ar
    29    15    20   ar
    30    15    22    1
    31     6     1   ar
    32     4     3   ar
    33    33    34   ar
    34     1     2   ar
    35     1     9    1
    36     3     2   ar
    37     2     8    1
    38    36    28    1
    39    28    29   ar
    40    34    39    1
    41    34    31   ar
    42    39    40    1
    43    40    41    1
    44    29    31   ar
    45    29    32    1
    46    31    43    1
    47    48    44    1
    48    43    42   ar
    49    43    44   ar
    50    50    42    1
    51    42    47   ar
    52    44    45   ar
    53    47    46   ar
    54    45    46   ar
    55    45    53    1
    56    46    49    1
    57    53    54    3
    58    54    55    1
