@<TRIPOS>MOLECULE
mol_data/noopt/geoms/mol2/6he6he-.out
 28 29 0 0 0
SMALL
GASTEIGER

@<TRIPOS>ATOM
      1 C          -4.5775   -2.0270    0.0001 C.ar    1  LIG1        0.1168
      2 C          -3.1706   -2.0270    0.0001 C.ar    1  LIG1       -0.0218
      3 C          -2.5039   -0.8004    0.0001 C.ar    1  LIG1       -0.0530
      4 C          -3.2580    0.3743   -0.0001 C.ar    1  LIG1       -0.0172
      5 C          -4.6612    0.2715   -0.0003 C.ar    1  LIG1        0.0799
      6 N          -5.3207   -0.9034   -0.0001 N.ar    1  LIG1       -0.2321
      7 H          -1.4054   -0.7607   -0.0009 H       1  LIG1        0.0622
      8 H          -2.5135   -3.1487    0.0004 H       1  LIG1        0.0652
      9 N          -5.2431   -3.1437    0.0002 N.pl3   1  LIG1       -0.3431
     10 H          -6.1151   -3.0120   -0.4712 H       1  LIG1        0.1437
     11 H          -4.7125   -3.8481   -0.4712 H       1  LIG1        0.1437
     12 C          -2.6846    1.5410   -0.0003 C.3     1  LIG1       -0.0033
     13 C          -2.1548    2.6190   -0.0005 C.3     1  LIG1       -0.0262
     14 H          -1.6828    3.5793   -0.0006 H       1  LIG1        0.0313
     15 C          -4.8196    2.6153   -0.0003 C.ar    1  LIG1        0.1441
     16 C          -5.4065    1.3366   -0.0004 C.ar    1  LIG1        0.0430
     17 C          -6.7994    1.2424   -0.0003 C.ar    1  LIG1       -0.0323
     18 C          -7.5524    2.4178   -0.0003 C.ar    1  LIG1        0.0435
     19 C          -6.8736    3.6502   -0.0004 C.ar    1  LIG1        0.0451
     20 N          -5.5307    3.7594   -0.0003 N.ar    1  LIG1       -0.2372
     21 H          -7.2937    0.2606   -0.0014 H       1  LIG1        0.0638
     22 H          -7.5307    4.7719   -0.0003 H       1  LIG1        0.0843
     23 N          -3.5270    2.7543   -0.0003 N.pl3   1  LIG1       -0.2488
     24 H          -3.1083    1.9782   -0.4717 H       1  LIG1        0.0358
     25 H          -3.2830    3.6018   -0.4717 H       1  LIG1        0.1715
     26 C          -8.8520    2.3834   -0.0004 C.1     1  LIG1       -0.0681
     27 C         -10.0528    2.3516   -0.0005 C.1     1  LIG1       -0.1139
     28 H         -11.1224    2.3232   -0.0006 H       1  LIG1        0.1232
@<TRIPOS>BOND
     1    25    23    1
     2    24    12    1
     3    11     9    1
     4    10     9    1
     5    21    17    1
     6     7     3    1
     7    14    13    1
     8    28    27    1
     9    27    26    3
    10    13    12    1
    11    16    17   ar
    12    16     5    1
    13    16    15   ar
    14    26    18    1
    15    19    18   ar
    16    19    22    1
    17    19    20   ar
    18    17    18   ar
    19    12     4    1
    20     5     6   ar
    21     5     4   ar
    22    15    20   ar
    23    15    23    1
    24     6     1   ar
    25     4     3   ar
    26     1     2   ar
    27     1     9    1
    28     3     2   ar
    29     2     8    1
