@<TRIPOS>MOLECULE
mol_data/noopt/geoms/mol2/6he6if(10)4lf(280)6de(310).out
 55 58 0 0 0
SMALL
GASTEIGER

@<TRIPOS>ATOM
      1 C          -4.5775   -2.0270    0.0001 C.ar    1  LIG1        0.1169
      2 C          -3.1706   -2.0270    0.0001 C.ar    1  LIG1       -0.0209
      3 C          -2.5039   -0.8004    0.0001 C.ar    1  LIG1       -0.0410
      4 C          -3.2580    0.3743   -0.0001 C.ar    1  LIG1        0.0508
      5 C          -4.6612    0.2715   -0.0003 C.ar    1  LIG1        0.0902
      6 N          -5.3207   -0.9034   -0.0001 N.ar    1  LIG1       -0.2312
      7 H          -1.4054   -0.7607   -0.0009 H       1  LIG1        0.0631
      8 H          -2.5135   -3.1487    0.0004 H       1  LIG1        0.0652
      9 N          -5.2431   -3.1437    0.0002 N.pl3   1  LIG1       -0.3431
     10 H          -6.1151   -3.0120   -0.4712 H       1  LIG1        0.1437
     11 H          -4.7125   -3.8481   -0.4712 H       1  LIG1        0.1437
     12 C          -2.6846    1.5410   -0.0003 C.1     1  LIG1       -0.0675
     13 C          -2.1548    2.6190   -0.0005 C.1     1  LIG1       -0.1138
     14 H          -1.6828    3.5793   -0.0006 H       1  LIG1        0.1232
     15 C          -6.7938    1.2338   -0.2109 C.ar    1  LIG1        0.0483
     16 C          -5.4065    1.3366   -0.0004 C.ar    1  LIG1        0.0261
     17 C          -4.8557    2.6025    0.2071 C.ar    1  LIG1       -0.0071
     18 C          -5.7013    3.7132    0.1972 C.ar    1  LIG1        0.1435
     19 C          -7.0759    3.5086   -0.0220 C.ar    1  LIG1        0.1162
     20 N          -7.6242    2.2945   -0.2236 N.ar    1  LIG1       -0.2474
     21 H          -3.7758    2.7223    0.3739 H       1  LIG1        0.0662
     22 C          -7.3532    0.0768   -0.4085 C.3     1  LIG1       -0.0217
     23 H          -6.7535   -0.6899    0.0359 H       1  LIG1        0.0293
     24 H          -7.4399   -0.1026   -1.4598 H       1  LIG1        0.0293
     25 H          -8.3266    0.0707    0.0358 H       1  LIG1        0.0293
     26 O          -5.2372    4.9129    0.3853 O.3     1  LIG1       -0.5046
     27 H          -5.9668    5.5351    0.4316 H       1  LIG1        0.2922
     28 C          -8.1754    5.1755   -1.2534 C.ar    1  LIG1        0.1302
     29 C          -9.0776    6.2564   -1.2199 C.ar    1  LIG1       -0.0080
     30 C          -7.9033    4.5111   -0.0400 C.ar    1  LIG1        0.0490
     31 C          -9.6837    6.6592   -0.0320 C.ar    1  LIG1        0.0298
     32 H          -9.3017    6.7831   -2.1448 H       1  LIG1        0.0661
     33 C          -8.5081    4.9129    1.1461 C.ar    1  LIG1       -0.0068
     34 C          -9.4019    5.9887    1.1588 C.ar    1  LIG1        0.1255
     35 H          -8.2818    4.3845    2.0688 H       1  LIG1        0.0662
     36 O          -7.6418    4.8461   -2.3922 O.3     1  LIG1       -0.4944
     37 C          -8.1540    3.5782   -2.8103 C.3     1  LIG1        0.0788
     38 H          -7.7146    3.3075   -3.7477 H       1  LIG1        0.0660
     39 H          -7.9139    2.8370   -2.0767 H       1  LIG1        0.0660
     40 H          -9.2165    3.6410   -2.9194 H       1  LIG1        0.0660
     41 O          -9.9641    6.3599    2.2707 O.3     1  LIG1       -0.5061
     42 H         -10.6013    5.6962    2.5447 H       1  LIG1        0.2922
     43 C         -11.5691    7.7151    0.8892 C.ar    1  LIG1        0.1479
     44 C         -10.5119    7.6612   -0.0375 C.ar    1  LIG1        0.0227
     45 C         -10.3764    8.7041   -0.9556 C.ar    1  LIG1       -0.0343
     46 C         -11.2932    9.7561   -0.9178 C.ar    1  LIG1        0.0434
     47 C         -12.3171    9.7201    0.0465 C.ar    1  LIG1        0.0444
     48 N         -12.4625    8.7221    0.9398 N.ar    1  LIG1       -0.2428
     49 H          -9.5634    8.6962   -1.6954 H       1  LIG1        0.0637
     50 H         -13.1946   10.6763    0.1214 H       1  LIG1        0.0842
     51 N         -11.8841    5.9325    2.5352 N.1     1  LIG1       -0.1893
     52 C         -11.7365    6.7679    1.7638 C.1     1  LIG1        0.1197
     53 C         -11.2101   10.7503   -1.7513 C.1     1  LIG1       -0.0681
     54 C         -11.1333   11.6689   -2.5214 C.1     1  LIG1       -0.1139
     55 H         -11.0649   12.4872   -3.2074 H       1  LIG1        0.1232
@<TRIPOS>BOND
     1    38    37    1
     2    55    54    1
     3    40    37    1
     4    37    36    1
     5    37    39    1
     6    54    53    3
     7    36    28    1
     8    32    29    1
     9    53    46    1
    10    49    45    1
    11    24    22    1
    12    28    29   ar
    13    28    30   ar
    14    29    31   ar
    15    45    46   ar
    16    45    44   ar
    17    46    47   ar
    18    11     9    1
    19    10     9    1
    20    22    15    1
    21    22    25    1
    22    22    23    1
    23    20    15   ar
    24    20    19   ar
    25    15    16   ar
    26    30    19    1
    27    30    33   ar
    28    44    31    1
    29    44    43   ar
    30    31    34   ar
    31    19    18   ar
    32     7     3    1
    33    14    13    1
    34    13    12    3
    35    16     5    1
    36    16    17   ar
    37    12     4    1
    38     5     6   ar
    39     5     4   ar
    40     6     1   ar
    41     4     3   ar
    42     2     3   ar
    43     2     1   ar
    44     2     8    1
    45     1     9    1
    46    47    50    1
    47    47    48   ar
    48    18    17   ar
    49    18    26    1
    50    17    21    1
    51    26    27    1
    52    43    48   ar
    53    43    52    1
    54    33    34   ar
    55    33    35    1
    56    34    41    1
    57    52    51    3
    58    41    42    1
