@<TRIPOS>MOLECULE
mol_data/noopt/geoms/mol2/6he6al-12he-6hf.out
 51 54 0 0 0
SMALL
GASTEIGER

@<TRIPOS>ATOM
      1 C          -4.5775   -2.0270    0.0001 C.ar    1  LIG1        0.1169
      2 C          -3.1706   -2.0270    0.0001 C.ar    1  LIG1       -0.0209
      3 C          -2.5039   -0.8004    0.0001 C.ar    1  LIG1       -0.0410
      4 C          -3.2580    0.3743   -0.0001 C.ar    1  LIG1        0.0508
      5 C          -4.6612    0.2715   -0.0003 C.ar    1  LIG1        0.0900
      6 N          -5.3207   -0.9034   -0.0001 N.ar    1  LIG1       -0.2312
      7 H          -1.4054   -0.7607   -0.0009 H       1  LIG1        0.0631
      8 H          -2.5135   -3.1487    0.0004 H       1  LIG1        0.0652
      9 N          -5.2431   -3.1437    0.0002 N.pl3   1  LIG1       -0.3431
     10 H          -6.1151   -3.0120   -0.4712 H       1  LIG1        0.1437
     11 H          -4.7125   -3.8481   -0.4712 H       1  LIG1        0.1437
     12 C          -2.6846    1.5410   -0.0003 C.1     1  LIG1       -0.0675
     13 C          -2.1548    2.6190   -0.0005 C.1     1  LIG1       -0.1138
     14 H          -1.6828    3.5793   -0.0006 H       1  LIG1        0.1232
     15 C          -6.8087    1.2234   -0.0215 C.ar    1  LIG1        0.0378
     16 C          -5.4065    1.3366   -0.0004 C.ar    1  LIG1        0.0232
     17 C          -4.8409    2.6128    0.0206 C.ar    1  LIG1       -0.0070
     18 C          -5.6872    3.7230    0.0196 C.ar    1  LIG1        0.1497
     19 C          -7.0774    3.5076   -0.0025 C.ar    1  LIG1        0.1493
     20 N          -7.6400    2.2835   -0.0227 N.ar    1  LIG1       -0.2475
     21 H          -3.7493    2.7408    0.0363 H       1  LIG1        0.0662
     22 H          -7.3820    0.0568   -0.0413 H       1  LIG1        0.0836
     23 O          -5.2098    4.9320    0.0384 O.3     1  LIG1       -0.4928
     24 C          -3.7807    4.8808    0.0452 C.3     1  LIG1        0.0789
     25 H          -3.3882    5.8761    0.0606 H       1  LIG1        0.0660
     26 H          -3.4469    4.3523    0.9137 H       1  LIG1        0.0660
     27 H          -3.4377    4.3756   -0.8334 H       1  LIG1        0.0660
     28 C          -7.9061    4.5092   -0.0043 C.ar    1  LIG1        0.1791
     29 C          -7.7876    5.8836    0.0092 C.ar    1  LIG1        0.0889
     30 C          -9.1342    6.4161   -0.0031 C.ar    1  LIG1        0.0918
     31 C          -9.9865    5.3314   -0.0235 C.ar    1  LIG1        0.1563
     32 O          -9.2530    4.1444   -0.0247 O.2     1  LIG1       -0.4499
     33 N          -6.6951    6.5879    0.0293 N.pl3   1  LIG1       -0.3540
     34 H          -5.9665    6.0861   -0.4370 H       1  LIG1        0.1425
     35 H          -6.8512    7.4586   -0.4370 H       1  LIG1        0.1425
     36 C          -9.4503    7.6771    0.0039 C.1     1  LIG1       -0.0640
     37 C          -9.7424    8.8422    0.0103 C.1     1  LIG1       -0.1137
     38 H         -10.0026    9.8801    0.0161 H       1  LIG1        0.1232
     39 C         -11.8275    3.8725   -0.0507 C.ar    1  LIG1        0.1271
     40 C         -11.2759    5.1667   -0.0412 C.ar    1  LIG1        0.0615
     41 C         -12.1428    6.2610   -0.0509 C.ar    1  LIG1       -0.0047
     42 C         -13.5190    6.0280   -0.0697 C.ar    1  LIG1        0.1357
     43 C         -13.9746    4.6969   -0.0783 C.ar    1  LIG1        0.0711
     44 N         -13.1525    3.6295   -0.0689 N.ar    1  LIG1       -0.2364
     45 H         -11.7486    7.2871   -0.0449 H       1  LIG1        0.0663
     46 H         -15.2465    4.4289   -0.0957 H       1  LIG1        0.0867
     47 N         -11.0613    2.8223   -0.0422 N.pl3   1  LIG1       -0.3426
     48 H         -11.5227    2.0693   -0.5114 H       1  LIG1        0.1437
     49 H         -10.2035    3.0318   -0.5115 H       1  LIG1        0.1437
     50 O         -14.3674    7.0130   -0.0795 O.3     1  LIG1       -0.5052
     51 H         -15.2622    6.6652   -0.0820 H       1  LIG1        0.2922
@<TRIPOS>BOND
     1    27    24    1
     2    49    47    1
     3    48    47    1
     4    11     9    1
     5    10     9    1
     6    35    33    1
     7    34    33    1
     8    46    43    1
     9    51    50    1
    10    50    42    1
    11    43    42   ar
    12    43    44   ar
    13    42    41   ar
    14    44    39   ar
    15    41    45    1
    16    41    40   ar
    17    39    47    1
    18    39    40   ar
    19    22    15    1
    20    40    31    1
    21    32    31   ar
    22    32    28   ar
    23    31    30   ar
    24    20    15   ar
    25    20    19   ar
    26    15    16   ar
    27    28    19    1
    28    28    29   ar
    29    30    36    1
    30    30    29   ar
    31    19    18   ar
    32     7     3    1
    33    14    13    1
    34    13    12    3
    35    16     5    1
    36    16    17   ar
    37     5     6   ar
    38     5     4   ar
    39    12     4    1
    40     6     1   ar
    41     4     3   ar
    42     1     2   ar
    43     1     9    1
    44     3     2   ar
    45     2     8    1
    46    36    37    3
    47    29    33    1
    48    37    38    1
    49    18    17   ar
    50    18    23    1
    51    17    21    1
    52    23    24    1
    53    24    25    1
    54    24    26    1
