@<TRIPOS>MOLECULE
mol_data/noopt/geoms/mol2/6he6he-6he-6he-.out
 54 57 0 0 0
SMALL
GASTEIGER

@<TRIPOS>ATOM
      1 C          -4.5775   -2.0270    0.0001 C.ar    1  LIG1        0.1168
      2 C          -3.1706   -2.0270    0.0001 C.ar    1  LIG1       -0.0218
      3 C          -2.5039   -0.8004    0.0001 C.ar    1  LIG1       -0.0530
      4 C          -3.2580    0.3743   -0.0001 C.ar    1  LIG1       -0.0172
      5 C          -4.6612    0.2715   -0.0003 C.ar    1  LIG1        0.0799
      6 N          -5.3207   -0.9034   -0.0001 N.ar    1  LIG1       -0.2321
      7 H          -1.4054   -0.7607   -0.0009 H       1  LIG1        0.0622
      8 H          -2.5135   -3.1487    0.0004 H       1  LIG1        0.0652
      9 N          -5.2431   -3.1437    0.0002 N.pl3   1  LIG1       -0.3431
     10 H          -6.1151   -3.0120   -0.4712 H       1  LIG1        0.1437
     11 H          -4.7125   -3.8481   -0.4712 H       1  LIG1        0.1437
     12 C          -2.6846    1.5410   -0.0003 C.3     1  LIG1       -0.0033
     13 C          -2.1548    2.6190   -0.0005 C.3     1  LIG1       -0.0262
     14 H          -1.6828    3.5793   -0.0006 H       1  LIG1        0.0313
     15 C          -4.8196    2.6153   -0.0003 C.ar    1  LIG1        0.1448
     16 C          -5.4065    1.3366   -0.0004 C.ar    1  LIG1        0.0430
     17 C          -6.7994    1.2424   -0.0003 C.ar    1  LIG1       -0.0317
     18 C          -7.5524    2.4178   -0.0003 C.ar    1  LIG1        0.0515
     19 C          -6.8736    3.6502   -0.0004 C.ar    1  LIG1        0.0918
     20 N          -5.5307    3.7594   -0.0003 N.ar    1  LIG1       -0.2288
     21 H          -7.2937    0.2606   -0.0014 H       1  LIG1        0.0638
     22 N          -3.5270    2.7543   -0.0003 N.pl3   1  LIG1       -0.2488
     23 H          -3.1083    1.9782   -0.4717 H       1  LIG1        0.0358
     24 H          -3.2830    3.6018   -0.4717 H       1  LIG1        0.1715
     25 C          -8.8520    2.3834   -0.0004 C.1     1  LIG1       -0.0675
     26 C         -10.0528    2.3516   -0.0005 C.1     1  LIG1       -0.1138
     27 H         -11.1224    2.3232   -0.0006 H       1  LIG1        0.1232
     28 C          -6.8427    5.9991   -0.0000 C.ar    1  LIG1        0.1262
     29 C          -7.5307    4.7719   -0.0003 C.ar    1  LIG1        0.0423
     30 C          -8.9267    4.7902   -0.0001 C.ar    1  LIG1       -0.0317
     31 C          -9.5826    6.0224    0.0002 C.ar    1  LIG1        0.0515
     32 C          -8.8067    7.1961    0.0002 C.ar    1  LIG1        0.0918
     33 N          -7.4594    7.1968    0.0002 N.ar    1  LIG1       -0.2304
     34 H          -9.4985    3.8514   -0.0012 H       1  LIG1        0.0638
     35 N          -5.5432    6.0336   -0.0001 N.pl3   1  LIG1       -0.3426
     36 H          -5.1884    5.2262   -0.4716 H       1  LIG1        0.1437
     37 H          -5.2317    6.8586   -0.4716 H       1  LIG1        0.1437
     38 C         -10.8807    6.0928    0.0002 C.1     1  LIG1       -0.0675
     39 C         -12.0801    6.1578    0.0002 C.1     1  LIG1       -0.1138
     40 H         -13.1486    6.2157    0.0002 H       1  LIG1        0.1232
     41 C          -8.5867    9.5349    0.0008 C.ar    1  LIG1        0.1255
     42 C          -9.3714    8.3671    0.0005 C.ar    1  LIG1        0.0423
     43 C         -10.7613    8.4977    0.0008 C.ar    1  LIG1       -0.0324
     44 C         -11.3158    9.7788    0.0012 C.ar    1  LIG1        0.0435
     45 C         -10.4479   10.8862    0.0013 C.ar    1  LIG1        0.0451
     46 N          -9.1049   10.7784    0.0012 N.ar    1  LIG1       -0.2388
     47 H         -11.4069    7.6081   -0.0005 H       1  LIG1        0.0638
     48 H         -10.9164   12.0988    0.0018 H       1  LIG1        0.0843
     49 N          -7.2886    9.4646    0.0006 N.pl3   1  LIG1       -0.3426
     50 H          -7.0000    8.6313   -0.4708 H       1  LIG1        0.1437
     51 H          -6.9117   10.2618   -0.4708 H       1  LIG1        0.1437
     52 C         -12.6040    9.9535    0.0014 C.1     1  LIG1       -0.0681
     53 C         -13.7943   10.1149    0.0015 C.1     1  LIG1       -0.1139
     54 H         -14.8546   10.2587    0.0016 H       1  LIG1        0.1232
@<TRIPOS>BOND
     1    24    22    1
     2    23    12    1
     3    37    35    1
     4    36    35    1
     5    11     9    1
     6    10     9    1
     7    51    49    1
     8    50    49    1
     9    21    17    1
    10    34    30    1
    11     7     3    1
    12    14    13    1
    13    27    26    1
    14    26    25    3
    15    13    12    1
    16    47    43    1
    17    16    17   ar
    18    16     5    1
    19    16    15   ar
    20    25    18    1
    21    19    18   ar
    22    19    29    1
    23    19    20   ar
    24    17    18   ar
    25    12     4    1
    26     5     6   ar
    27     5     4   ar
    28    29    30   ar
    29    29    28   ar
    30    15    20   ar
    31    15    22    1
    32    35    28    1
    33     6     1   ar
    34     4     3   ar
    35    30    31   ar
    36    28    33   ar
    37     1     2   ar
    38     1     9    1
    39     2     3   ar
    40     2     8    1
    41    31    32   ar
    42    31    38    1
    43    32    33   ar
    44    32    42    1
    45    38    39    3
    46    39    40    1
    47    42    43   ar
    48    42    41   ar
    49    49    41    1
    50    43    44   ar
    51    41    46   ar
    52    44    45   ar
    53    44    52    1
    54    46    45   ar
    55    45    48    1
    56    52    53    3
    57    53    54    1
