@<TRIPOS>MOLECULE
mol_data/noopt/geoms/mol2/6hf12al-12ad-4eh.out
 47 51 0 0 0
SMALL
GASTEIGER

@<TRIPOS>ATOM
      1 C          -4.5775   -2.0270    0.0001 C.ar    1  LIG1        0.1172
      2 C          -3.1706   -2.0270    0.0001 C.ar    1  LIG1       -0.0186
      3 C          -2.5039   -0.8004    0.0001 C.ar    1  LIG1       -0.0147
      4 C          -3.2580    0.3743   -0.0001 C.ar    1  LIG1        0.1459
      5 C          -4.6612    0.2715   -0.0003 C.ar    1  LIG1        0.1494
      6 N          -5.3207   -0.9034   -0.0001 N.ar    1  LIG1       -0.2257
      7 H          -1.4054   -0.7607   -0.0009 H       1  LIG1        0.0656
      8 H          -2.5135   -3.1487    0.0004 H       1  LIG1        0.0653
      9 N          -5.2431   -3.1437    0.0002 N.pl3   1  LIG1       -0.3431
     10 H          -6.1151   -3.0120   -0.4712 H       1  LIG1        0.1437
     11 H          -4.7125   -3.8481   -0.4712 H       1  LIG1        0.1437
     12 O          -2.6846    1.5410   -0.0003 O.3     1  LIG1       -0.5045
     13 H          -3.3554    2.2278   -0.0003 H       1  LIG1        0.2922
     14 C          -5.4065    1.3366   -0.0004 C.ar    1  LIG1        0.1612
     15 C          -5.1777    2.6969    0.0143 C.ar    1  LIG1        0.0284
     16 C          -6.4770    3.3362    0.0035 C.ar    1  LIG1        0.1694
     17 C          -7.4140    2.3237   -0.0171 C.ar    1  LIG1        0.2119
     18 O          -6.7784    1.0815   -0.0201 O.2     1  LIG1       -0.4462
     19 H          -4.0320    3.3109    0.0342 H       1  LIG1        0.0693
     20 O          -6.6906    4.6186    0.0120 O.3     1  LIG1       -0.4912
     21 C          -5.4393    5.3108    0.0151 C.3     1  LIG1        0.0790
     22 H          -5.6155    6.3662    0.0219 H       1  LIG1        0.0660
     23 H          -4.8821    5.0366    0.8865 H       1  LIG1        0.0660
     24 H          -4.8839    5.0476   -0.8608 H       1  LIG1        0.0660
     25 C          -8.7125    2.2634   -0.0340 C.ar    1  LIG1        0.1746
     26 C          -9.7395    3.1843   -0.0467 C.ar    1  LIG1       -0.0066
     27 C         -10.9744    2.4282   -0.0632 C.ar    1  LIG1        0.0292
     28 C         -10.6199    1.0948   -0.0595 C.ar    1  LIG1        0.1422
     29 O          -9.2305    0.9676   -0.0417 O.2     1  LIG1       -0.4512
     30 H          -9.6457    4.4809   -0.0446 H       1  LIG1        0.0660
     31 N         -13.2284    3.3793   -0.0918 N.pl3   1  LIG1       -0.2335
     32 C         -12.1721    2.9336   -0.0784 C.3     1  LIG1        0.1410
     33 C         -12.6731   -0.0400   -0.0726 C.2     1  LIG1        0.0144
     34 C         -13.3231   -1.2893   -0.0809 C.3     1  LIG1        0.0230
     35 C         -11.2633   -0.0347   -0.0685 C.2     1  LIG1        0.0307
     36 C         -12.6031   -2.4819   -0.0854 C.2     1  LIG1       -0.0544
     37 H         -14.4105   -1.3163   -0.0839 H       1  LIG1        0.0407
     38 C         -10.5440   -1.2250   -0.0731 C.2     1  LIG1       -0.0298
     39 C         -11.2079   -2.4561   -0.0817 C.2     1  LIG1        0.0219
     40 H          -9.4574   -1.1945   -0.0697 H       1  LIG1        0.0643
     41 H         -13.2356   -3.6177   -0.0931 H       1  LIG1        0.0597
     42 C         -13.3990    1.0385   -0.0689 C.1     1  LIG1       -0.0983
     43 C         -14.0697    2.0350   -0.0655 C.2     1  LIG1        0.0548
     44 H         -14.6672    2.9226   -0.0625 H       1  LIG1        0.0888
     45 N         -10.5303   -3.5655   -0.0857 N.pl3   1  LIG1       -0.3582
     46 H         -11.0542   -4.2743   -0.5582 H       1  LIG1        0.1423
     47 H          -9.6606   -3.4231   -0.5582 H       1  LIG1        0.1423
@<TRIPOS>BOND
     1    24    21    1
     2    47    45    1
     3    46    45    1
     4    11     9    1
     5    10     9    1
     6    41    36    1
     7    31    32    1
     8    31    43    1
     9    45    39    1
    10    36    39    2
    11    36    34    1
    12    37    34    1
    13    39    38    1
    14    34    33    1
    15    32    27    1
    16    38    40    1
    17    38    35    2
    18    33    42    2
    19    33    35    1
    20    42    43    2
    21    35    28    1
    22    43    44    1
    23    27    28   ar
    24    27    26   ar
    25    28    29   ar
    26    26    30    1
    27    26    25   ar
    28    29    25   ar
    29    25    17    1
    30    18    17   ar
    31    18    14   ar
    32    17    16   ar
    33     7     3    1
    34    14     5    1
    35    14    15   ar
    36    13    12    1
    37    12     4    1
    38     5     6   ar
    39     5     4   ar
    40     6     1   ar
    41     4     3   ar
    42     3     2   ar
    43     1     2   ar
    44     1     9    1
    45     2     8    1
    46    16    20    1
    47    16    15   ar
    48    20    21    1
    49    15    19    1
    50    21    22    1
    51    21    23    1
