@<TRIPOS>MOLECULE
mol_data/noopt/geoms/mol2/6hf12ei13ea-13ef-.out
 47 50 0 0 0
SMALL
GASTEIGER

@<TRIPOS>ATOM
      1 C          -4.5775   -2.0270    0.0001 C.ar    1  LIG1        0.1172
      2 C          -3.1706   -2.0270    0.0001 C.ar    1  LIG1       -0.0186
      3 C          -2.5039   -0.8004    0.0001 C.ar    1  LIG1       -0.0147
      4 C          -3.2580    0.3743   -0.0001 C.ar    1  LIG1        0.1459
      5 C          -4.6612    0.2715   -0.0003 C.ar    1  LIG1        0.1505
      6 N          -5.3207   -0.9034   -0.0001 N.ar    1  LIG1       -0.2256
      7 H          -1.4054   -0.7607   -0.0009 H       1  LIG1        0.0656
      8 H          -2.5135   -3.1487    0.0004 H       1  LIG1        0.0653
      9 N          -5.2431   -3.1437    0.0002 N.pl3   1  LIG1       -0.3431
     10 H          -6.1151   -3.0120   -0.4712 H       1  LIG1        0.1437
     11 H          -4.7125   -3.8481   -0.4712 H       1  LIG1        0.1437
     12 O          -2.6846    1.5410   -0.0003 O.3     1  LIG1       -0.5045
     13 H          -3.3554    2.2278   -0.0003 H       1  LIG1        0.2922
     14 C          -5.4065    1.3366   -0.0004 C.ar    1  LIG1        0.1731
     15 C          -5.1776    2.6970   -0.0005 C.ar    1  LIG1        0.0756
     16 C          -6.4770    3.3362   -0.0006 C.ar    1  LIG1        0.0129
     17 C          -7.4141    2.3236   -0.0007 C.ar    1  LIG1        0.1571
     18 O          -6.7786    1.0814   -0.0006 O.2     1  LIG1       -0.4501
     19 C          -4.0318    3.3111   -0.0004 C.1     1  LIG1       -0.0655
     20 C          -2.9731    3.8785   -0.0003 C.1     1  LIG1       -0.1138
     21 H          -2.0300    4.3839   -0.0002 H       1  LIG1        0.1232
     22 C          -6.6905    4.6189   -0.0007 C.3     1  LIG1       -0.0349
     23 H          -7.6109    4.8273    0.5037 H       1  LIG1        0.0279
     24 H          -6.7492    4.9707   -1.0095 H       1  LIG1        0.0279
     25 H          -5.8873    5.1142    0.5037 H       1  LIG1        0.0279
     26 C          -8.7127    2.2633   -0.0007 C.ar    1  LIG1        0.0984
     27 C          -9.6417    3.2558   -0.0011 C.ar    1  LIG1        0.0536
     28 C         -10.9317    2.6341    0.0002 C.ar    1  LIG1       -0.0188
     29 C         -10.7343    1.2890   -0.0005 C.ar    1  LIG1        0.0659
     30 N          -9.3772    1.0577   -0.0006 N.ar    1  LIG1       -0.3496
     31 H          -8.9457    0.1622   -0.0011 H       1  LIG1        0.1661
     32 C          -9.3997    4.5330   -0.0010 C.1     1  LIG1       -0.0674
     33 C          -9.1760    5.7132   -0.0009 C.1     1  LIG1       -0.1138
     34 H          -8.9768    6.7645   -0.0008 H       1  LIG1        0.1232
     35 H         -12.0815    3.2405    0.0012 H       1  LIG1        0.0652
     36 C         -11.5905    0.3108    0.0000 C.ar    1  LIG1        0.0821
     37 C         -12.9497    0.3284    0.0166 C.ar    1  LIG1        0.0927
     38 C         -13.3951   -1.0326    0.0094 C.ar    1  LIG1        0.1500
     39 C         -12.2885   -1.8219   -0.0130 C.ar    1  LIG1        0.0454
     40 N         -11.1815   -1.0036   -0.0184 N.ar    1  LIG1       -0.3555
     41 H         -10.2369   -1.3126   -0.0338 H       1  LIG1        0.1655
     42 H         -12.1763   -3.1170   -0.0272 H       1  LIG1        0.0845
     43 C         -13.7030    1.3877    0.0369 C.1     1  LIG1       -0.0638
     44 C         -14.3990    2.3665    0.0556 C.1     1  LIG1       -0.1137
     45 H         -15.0190    3.2384    0.0723 H       1  LIG1        0.1232
     46 O         -14.6290   -1.4417    0.0216 O.3     1  LIG1       -0.5040
     47 H         -14.6483   -2.4015    0.0246 H       1  LIG1        0.2923
@<TRIPOS>BOND
     1    24    22    1
     2    11     9    1
     3    10     9    1
     4    41    40    1
     5    42    39    1
     6    40    39   ar
     7    40    36   ar
     8    39    38   ar
     9    27    32    1
    10    27    26   ar
    11    27    28   ar
    12    31    30    1
    13    32    33    3
    14    33    34    1
    15     7     3    1
    16    26    17    1
    17    26    30   ar
    18    22    16    1
    19    22    25    1
    20    22    23    1
    21    17    18   ar
    22    17    16   ar
    23    18    14   ar
    24    16    15   ar
    25    30    29   ar
    26    29    36    1
    27    29    28   ar
    28    15    14   ar
    29    15    19    1
    30    14     5    1
    31    19    20    3
    32    13    12    1
    33    12     4    1
    34     5     6   ar
    35     5     4   ar
    36    20    21    1
    37     6     1   ar
    38     4     3   ar
    39    36    37   ar
    40     1     2   ar
    41     1     9    1
    42     3     2   ar
    43     2     8    1
    44    28    35    1
    45    38    37   ar
    46    38    46    1
    47    37    43    1
    48    46    47    1
    49    43    44    3
    50    44    45    1
