@<TRIPOS>MOLECULE
mol_data/noopt/geoms/mol2/6hf12ai(310)13dl(310)4ff(300).out
 49 52 0 0 0
SMALL
GASTEIGER

@<TRIPOS>ATOM
      1 C          -4.5775   -2.0270    0.0001 C.ar    1  LIG1        0.1172
      2 C          -3.1706   -2.0270    0.0001 C.ar    1  LIG1       -0.0186
      3 C          -2.5039   -0.8004    0.0001 C.ar    1  LIG1       -0.0147
      4 C          -3.2580    0.3743   -0.0001 C.ar    1  LIG1        0.1459
      5 C          -4.6612    0.2715   -0.0003 C.ar    1  LIG1        0.1492
      6 N          -5.3207   -0.9034   -0.0001 N.ar    1  LIG1       -0.2257
      7 H          -1.4054   -0.7607   -0.0009 H       1  LIG1        0.0656
      8 H          -2.5135   -3.1487    0.0004 H       1  LIG1        0.0653
      9 N          -5.2431   -3.1437    0.0002 N.pl3   1  LIG1       -0.3431
     10 H          -6.1151   -3.0120   -0.4712 H       1  LIG1        0.1437
     11 H          -4.7125   -3.8481   -0.4712 H       1  LIG1        0.1437
     12 O          -2.6846    1.5410   -0.0003 O.3     1  LIG1       -0.5045
     13 H          -3.3554    2.2278   -0.0003 H       1  LIG1        0.2922
     14 C          -5.4065    1.3366   -0.0004 C.ar    1  LIG1        0.1578
     15 C          -5.4220    2.5260   -0.6991 C.ar    1  LIG1       -0.0106
     16 C          -6.5450    3.2886   -0.1951 C.ar    1  LIG1       -0.0026
     17 C          -7.1417    2.5143    0.7786 C.ar    1  LIG1        0.1561
     18 O          -6.4578    1.3059    0.9169 O.2     1  LIG1       -0.4514
     19 H          -4.6021    2.9119   -1.6312 H       1  LIG1        0.0659
     20 C          -6.9001    4.4722   -0.5999 C.3     1  LIG1       -0.0360
     21 H          -7.8794    4.6963   -0.2316 H       1  LIG1        0.0279
     22 H          -6.9073    4.4961   -1.6696 H       1  LIG1        0.0279
     23 H          -6.2057    5.1983   -0.2316 H       1  LIG1        0.0279
     24 C          -8.1629    2.6482    1.5719 C.ar    1  LIG1        0.1040
     25 C          -9.2276    3.4906    1.5043 C.ar    1  LIG1        0.1221
     26 C         -10.0602    3.2193    2.6374 C.ar    1  LIG1        0.1634
     27 C          -9.4684    2.2219    3.3466 C.ar    1  LIG1        0.0942
     28 N          -8.3063    1.8696    2.6981 N.ar    1  LIG1       -0.3477
     29 H          -7.6719    1.1645    2.9954 H       1  LIG1        0.1661
     30 N          -9.6381    5.1620   -0.2346 N.1     1  LIG1       -0.1907
     31 C          -9.4457    4.3787    0.5803 C.1     1  LIG1        0.1051
     32 O         -11.1767    3.8146    2.9359 O.3     1  LIG1       -0.4917
     33 C         -10.9525    5.2226    3.0454 C.3     1  LIG1        0.0789
     34 H         -11.8718    5.7121    3.2909 H       1  LIG1        0.0660
     35 H         -10.2321    5.4104    3.8140 H       1  LIG1        0.0660
     36 H         -10.5859    5.5990    2.1133 H       1  LIG1        0.0660
     37 C         -11.0329    0.8851    4.4732 C.ar    1  LIG1        0.1263
     38 C         -11.3909    0.2686    5.6877 C.ar    1  LIG1       -0.0161
     39 C          -9.8386    1.6338    4.4452 C.ar    1  LIG1        0.0468
     40 C         -10.5960    0.3903    6.8252 C.ar    1  LIG1       -0.0167
     41 H         -12.3086   -0.3136    5.7313 H       1  LIG1        0.0655
     42 C          -9.0447    1.7557    5.5806 C.ar    1  LIG1       -0.0075
     43 C          -9.4171    1.1354    6.7777 C.ar    1  LIG1        0.1177
     44 H          -8.1283    2.3385    5.5337 H       1  LIG1        0.0662
     45 H         -10.9567   -0.1923    7.9300 H       1  LIG1        0.0655
     46 O         -11.8151    0.7352    3.4456 O.3     1  LIG1       -0.5061
     47 H         -11.8375   -0.1905    3.1923 H       1  LIG1        0.2922
     48 O          -8.6711    1.2529    7.8359 O.3     1  LIG1       -0.5067
     49 H          -8.6280    2.1758    8.0966 H       1  LIG1        0.2921
@<TRIPOS>BOND
     1    22    20    1
     2    19    15    1
     3    15    16   ar
     4    15    14   ar
     5    20    23    1
     6    20    21    1
     7    20    16    1
     8    11     9    1
     9    10     9    1
    10    30    31    3
    11    16    17   ar
    12     7     3    1
    13    14     5    1
    14    14    18   ar
    15    13    12    1
    16    12     4    1
    17     5     6   ar
    18     5     4   ar
    19     6     1   ar
    20     4     3   ar
    21     3     2   ar
    22     1     2   ar
    23     1     9    1
    24     2     8    1
    25    31    25    1
    26    17    18   ar
    27    17    24    1
    28    25    24   ar
    29    25    26   ar
    30    24    28   ar
    31    36    33    1
    32    26    32    1
    33    26    27   ar
    34    28    29    1
    35    28    27   ar
    36    32    33    1
    37    33    34    1
    38    33    35    1
    39    47    46    1
    40    27    39    1
    41    46    37    1
    42    39    37   ar
    43    39    42   ar
    44    37    38   ar
    45    44    42    1
    46    42    43   ar
    47    38    41    1
    48    38    40   ar
    49    43    40   ar
    50    43    48    1
    51    40    45    1
    52    48    49    1
