@<TRIPOS>MOLECULE
mol_data/noopt/geoms/mol2/6hf12ie-13hh6li-12hh-12ia-4fa-13ea-.out
 96 103 0 0 0
SMALL
GASTEIGER

@<TRIPOS>ATOM
      1 C          -4.5775   -2.0270    0.0001 C.ar    1  LIG1        0.1172
      2 C          -3.1706   -2.0270    0.0001 C.ar    1  LIG1       -0.0186
      3 C          -2.5039   -0.8004    0.0001 C.ar    1  LIG1       -0.0147
      4 C          -3.2580    0.3743   -0.0001 C.ar    1  LIG1        0.1459
      5 C          -4.6612    0.2715   -0.0003 C.ar    1  LIG1        0.1495
      6 N          -5.3207   -0.9034   -0.0001 N.ar    1  LIG1       -0.2257
      7 H          -1.4054   -0.7607   -0.0009 H       1  LIG1        0.0656
      8 H          -2.5135   -3.1487    0.0004 H       1  LIG1        0.0653
      9 N          -5.2431   -3.1437    0.0002 N.pl3   1  LIG1       -0.3431
     10 H          -6.1151   -3.0120   -0.4712 H       1  LIG1        0.1437
     11 H          -4.7125   -3.8481   -0.4712 H       1  LIG1        0.1437
     12 O          -2.6846    1.5410   -0.0003 O.3     1  LIG1       -0.5045
     13 H          -3.3554    2.2278   -0.0003 H       1  LIG1        0.2922
     14 C          -5.4065    1.3366   -0.0004 C.ar    1  LIG1        0.1616
     15 C          -5.1777    2.6969    0.0143 C.ar    1  LIG1        0.0130
     16 C          -6.4770    3.3362    0.0035 C.ar    1  LIG1        0.0754
     17 C          -7.4140    2.3237   -0.0171 C.ar    1  LIG1        0.1692
     18 O          -6.7784    1.0815   -0.0201 O.2     1  LIG1       -0.4501
     19 C          -4.0318    3.3111    0.0342 C.3     1  LIG1       -0.0349
     20 H          -4.1369    4.2459    0.5440 H       1  LIG1        0.0279
     21 H          -3.7039    3.4869   -0.9691 H       1  LIG1        0.0279
     22 H          -3.3115    2.7058    0.5439 H       1  LIG1        0.0279
     23 C          -6.6906    4.6185    0.0120 C.1     1  LIG1       -0.0655
     24 C          -6.8879    5.8034    0.0199 C.1     1  LIG1       -0.1138
     25 H          -7.0636    6.8588    0.0268 H       1  LIG1        0.1232
     26 C          -8.7125    2.2634   -0.0340 C.ar    1  LIG1        0.1065
     27 C          -9.6415    3.2558   -0.0292 C.ar    1  LIG1        0.0749
     28 C         -10.9314    2.6342   -0.0540 C.ar    1  LIG1        0.0720
     29 C         -10.7338    1.2894   -0.0746 C.ar    1  LIG1        0.0749
     30 N          -9.3767    1.0580   -0.0620 N.ar    1  LIG1       -0.3486
     31 H          -8.9451    0.1627   -0.0722 H       1  LIG1        0.1661
     32 N          -9.3997    4.5329   -0.0049 N.pl3   1  LIG1       -0.3548
     33 H          -8.5339    4.7171   -0.4700 H       1  LIG1        0.1424
     34 H         -10.1383    5.0209   -0.4700 H       1  LIG1        0.1424
     35 N         -12.0813    3.2407   -0.0568 N.pl3   1  LIG1       -0.3549
     36 H         -11.9943    4.1179   -0.5289 H       1  LIG1        0.1424
     37 H         -12.7561    2.6735   -0.5289 H       1  LIG1        0.1424
     38 C         -11.1444   -1.0227   -0.1361 C.ar    1  LIG1        0.2245
     39 C         -11.5898    0.3113   -0.1008 C.ar    1  LIG1        0.0619
     40 C         -12.9643    0.5554   -0.0943 C.ar    1  LIG1       -0.0424
     41 C         -13.8399   -0.5315   -0.1232 C.ar    1  LIG1       -0.0205
     42 C         -13.2981   -1.8295   -0.1578 C.ar    1  LIG1        0.1146
     43 N         -11.9749   -2.0830   -0.1643 N.ar    1  LIG1       -0.2089
     44 H         -13.3498    1.5844   -0.0680 H       1  LIG1        0.0629
     45 O          -9.8744   -1.3005   -0.1433 O.3     1  LIG1       -0.4792
     46 C          -9.6961   -2.7193   -0.1461 C.3     1  LIG1        0.0804
     47 H          -8.6507   -2.9475   -0.1522 H       1  LIG1        0.0660
     48 H         -10.1472   -3.1372    0.7296 H       1  LIG1        0.0660
     49 H         -10.1570   -3.1350   -1.0176 H       1  LIG1        0.0660
     50 C         -15.1284   -0.3569   -0.1188 C.3     1  LIG1       -0.0376
     51 H         -15.5974   -1.1750    0.3868 H       1  LIG1        0.0278
     52 H         -15.4853   -0.3086   -1.1264 H       1  LIG1        0.0278
     53 H         -15.3628    0.5565    0.3868 H       1  LIG1        0.0278
     54 C         -14.0725   -2.8733   -0.1855 C.ar    1  LIG1        0.1767
     55 C         -15.4354   -3.0868   -0.1917 C.ar    1  LIG1        0.0943
     56 C         -15.6304   -4.5212   -0.2294 C.ar    1  LIG1        0.0958
     57 C         -14.3732   -5.0893   -0.2439 C.ar    1  LIG1        0.1933
     58 O         -13.3961   -4.0936   -0.2175 O.2     1  LIG1       -0.4463
     59 N         -16.3806   -2.1946   -0.1686 N.pl3   1  LIG1       -0.3535
     60 H         -16.0686   -1.3663   -0.6340 H       1  LIG1        0.1425
     61 H         -17.1895   -2.5538   -0.6340 H       1  LIG1        0.1425
     62 N         -16.7792   -5.1294   -0.2459 N.pl3   1  LIG1       -0.3535
     63 H         -17.4506   -4.5610   -0.7215 H       1  LIG1        0.1425
     64 H         -16.6865   -6.0041   -0.7215 H       1  LIG1        0.1425
     65 C         -13.9049   -6.3016   -0.2755 C.ar    1  LIG1        0.1754
     66 C         -14.4531   -7.5672   -0.2994 C.ar    1  LIG1       -0.0010
     67 C         -13.3449   -8.4988   -0.3303 C.ar    1  LIG1       -0.0121
     68 C         -12.1924   -7.7402   -0.3233 C.ar    1  LIG1        0.1396
     69 O         -12.5117   -6.3824   -0.2898 O.2     1  LIG1       -0.4513
     70 C         -15.7130   -7.8890   -0.2956 C.3     1  LIG1       -0.0360
     71 H         -15.8409   -8.8234    0.2099 H       1  LIG1        0.0279
     72 H         -16.0614   -7.9781   -1.3034 H       1  LIG1        0.0279
     73 H         -16.2733   -7.1304    0.2098 H       1  LIG1        0.0279
     74 H         -13.4450   -9.7946   -0.3588 H       1  LIG1        0.0658
     75 C         -10.4654   -9.3280   -0.3272 C.ar    1  LIG1        0.1281
     76 C          -9.0746   -9.5487   -0.3449 C.ar    1  LIG1       -0.0103
     77 C         -10.9173   -7.9926   -0.3402 C.ar    1  LIG1        0.0587
     78 C          -8.1719   -8.4881   -0.3749 C.ar    1  LIG1        0.0030
     79 H          -8.7042  -10.5714   -0.3352 H       1  LIG1        0.0661
     80 C         -10.0166   -6.9334   -0.3700 C.ar    1  LIG1       -0.0469
     81 C          -8.6387   -7.1731   -0.3877 C.ar    1  LIG1       -0.0517
     82 H         -10.3900   -5.9126   -0.3794 H       1  LIG1        0.0626
     83 O         -11.2580  -10.3581   -0.2997 O.3     1  LIG1       -0.5060
     84 H         -10.7361  -11.1639   -0.2929 H       1  LIG1        0.2922
     85 H          -7.8014   -6.1790   -0.4154 H       1  LIG1        0.0624
     86 C          -6.8943   -8.7281   -0.3907 C.ar    1  LIG1        0.0622
     87 C          -6.2184   -9.9075   -0.3852 C.ar    1  LIG1        0.0499
     88 C          -4.8201   -9.5992   -0.4089 C.ar    1  LIG1       -0.0284
     89 C          -4.7032   -8.2449   -0.4296 C.ar    1  LIG1        0.0034
     90 N          -5.9706   -7.7077   -0.4181 N.ar    1  LIG1       -0.3597
     91 H          -6.1848   -6.7371   -0.4286 H       1  LIG1        0.1654
     92 H          -3.6452   -7.4899   -0.4551 H       1  LIG1        0.0807
     93 C          -6.7474  -11.0947   -0.3611 C.1     1  LIG1       -0.0675
     94 C          -7.2362  -12.1918   -0.3389 C.1     1  LIG1       -0.1138
     95 H          -7.6716  -13.1690   -0.3191 H       1  LIG1        0.1232
     96 H          -3.8405  -10.4538   -0.4108 H       1  LIG1        0.0645
@<TRIPOS>BOND
     1    72    70    1
     2    52    50    1
     3    49    46    1
     4    21    19    1
     5    64    62    1
     6    63    62    1
     7    61    59    1
     8    60    59    1
     9    37    35    1
    10    36    35    1
    11    11     9    1
    12    10     9    1
    13    34    32    1
    14    33    32    1
    15    92    89    1
    16    89    90   ar
    17    89    88   ar
    18    91    90    1
    19    90    86   ar
    20    85    81    1
    21    96    88    1
    22    88    87   ar
    23    86    87   ar
    24    86    78    1
    25    81    78   ar
    26    81    80   ar
    27    87    93    1
    28    82    80    1
    29    78    76   ar
    30    80    77   ar
    31    93    94    3
    32    74    67    1
    33    76    79    1
    34    76    75   ar
    35    77    75   ar
    36    77    68    1
    37    94    95    1
    38    67    68   ar
    39    67    66   ar
    40    75    83    1
    41    68    69   ar
    42    83    84    1
    43    66    70    1
    44    66    65   ar
    45    70    73    1
    46    70    71    1
    47    69    65   ar
    48    65    57    1
    49    62    56    1
    50    57    56   ar
    51    57    58   ar
    52    56    55   ar
    53    58    54   ar
    54    55    54   ar
    55    55    59    1
    56    54    42    1
    57    43    42   ar
    58    43    38   ar
    59    42    41   ar
    60    47    46    1
    61    46    45    1
    62    46    48    1
    63    45    38    1
    64    38    39   ar
    65    41    50    1
    66    41    40   ar
    67    50    53    1
    68    50    51    1
    69    39    40   ar
    70    39    29    1
    71    40    44    1
    72    29    30   ar
    73    29    28   ar
    74    31    30    1
    75    30    26   ar
    76    35    28    1
    77    28    27   ar
    78    26    27   ar
    79    26    17    1
    80    27    32    1
    81    18    17   ar
    82    18    14   ar
    83    17    16   ar
    84     7     3    1
    85    14     5    1
    86    14    15   ar
    87    13    12    1
    88    12     4    1
    89     5     6   ar
    90     5     4   ar
    91     6     1   ar
    92     4     3   ar
    93     3     2   ar
    94     1     2   ar
    95     1     9    1
    96     2     8    1
    97    16    23    1
    98    16    15   ar
    99    23    24    3
   100    15    19    1
   101    24    25    1
   102    19    22    1
   103    19    20    1
