@<TRIPOS>MOLECULE
mol_data/noopt/geoms/mol2/6hf4dl-12li4fi.out
 57 56 0 0 0
SMALL
GASTEIGER

@<TRIPOS>ATOM
      1 C          -4.5775   -2.0270    0.0001 C.ar    1  LIG1        0.1170
      2 C          -3.1706   -2.0270    0.0001 C.ar    1  LIG1       -0.0186
      3 C          -2.5039   -0.8004    0.0001 C.ar    1  LIG1       -0.0148
      4 C          -3.2580    0.3743   -0.0001 C.ar    1  LIG1        0.1429
      5 C          -4.6612    0.2715   -0.0003 C.ar    1  LIG1        0.1157
      6 N          -5.3207   -0.9034   -0.0001 N.ar    1  LIG1       -0.2287
      7 H          -1.4054   -0.7607   -0.0009 H       1  LIG1        0.0656
      8 H          -2.5135   -3.1487    0.0004 H       1  LIG1        0.0653
      9 N          -5.2431   -3.1437    0.0002 N.pl3   1  LIG1       -0.3431
     10 H          -6.1151   -3.0120   -0.4712 H       1  LIG1        0.1437
     11 H          -4.7125   -3.8481   -0.4712 H       1  LIG1        0.1437
     12 O          -2.6846    1.5410   -0.0003 O.3     1  LIG1       -0.5046
     13 H          -3.3554    2.2278   -0.0003 H       1  LIG1        0.2922
     14 C          -4.8078    2.6129    0.0216 C.ar    1  LIG1        0.0696
     15 C          -5.6586    3.7351    0.0221 C.ar    1  LIG1        0.0136
     16 C          -5.4065    1.3366   -0.0004 C.ar    1  LIG1        0.0256
     17 C          -7.0444    3.5952    0.0010 C.ar    1  LIG1        0.0422
     18 H          -5.2175    4.7293    0.0391 H       2  LIG2        0.0194
     19 C          -6.7900    1.1963   -0.0215 C.ar    1  LIG1       -0.0038
     20 C          -7.6183    2.3234   -0.0211 C.ar    1  LIG1        0.1880
     21 H          -7.2275    0.2014   -0.0382 H       1  LIG1        0.0663
     22 N          -2.3889    2.9782    0.0594 N.1     1  LIG1       -0.1908
     23 C          -3.5225    2.8070    0.0417 C.1     1  LIG1        0.1004
     24 O          -8.9109    2.1862   -0.0407 O.3     1  LIG1       -0.2872
     25 C          -9.5278    3.4762   -0.0480 C.3     1  LIG1        0.1118
     26 H         -10.5917    3.3628   -0.0643 H       1  LIG1        0.0647
     27 H          -9.2400    4.0142    0.8310 H       1  LIG1        0.2100
     28 H          -9.2135    4.0170   -0.9161 H       2  LIG2        0.0000
     29 C          -7.8001    4.6530    0.0019 C.2     1  LIG1        0.0448
     30 C          -7.5844    6.0156    0.0027 C.2     1  LIG1        0.1909
     31 C          -8.8899    6.6422    0.0036 C.2     1  LIG1        0.0052
     32 C          -9.8171    5.6204    0.0033 C.2     1  LIG1        0.0003
     33 O          -9.1696    4.3845    0.0022 O.3     1  LIG1       -0.3865
     34 O          -6.4446    6.6408    0.0027 O.2     1  LIG1       -0.2869
     35 C          -5.3778    5.6884    0.0026 C.3     3  LIG3       -0.0776
     36 H          -4.4399    6.2034    0.0024 H       2  LIG2        0.0194
     37 H          -5.4476    5.0747    0.8764 H       2  LIG2        0.0194
     38 H          -5.4478    5.0745   -0.8709 H       2  LIG2        0.0194
     39 C          -9.1159    7.9227    0.0045 C.3     1  LIG1       -0.0355
     40 H         -10.0382    8.1218    0.5092 H       1  LIG1        0.0279
     41 H          -9.1781    8.2746   -1.0041 H       1  LIG1        0.0279
     42 H          -8.3174    8.4254    0.5091 H       1  LIG1        0.0279
     43 C         -11.8849    6.7287    0.0049 C.ar    1  LIG1        0.1246
     44 C         -13.2870    6.5962    0.0070 C.ar    1  LIG1       -0.0193
     45 C         -11.1150    5.5476    0.0038 C.ar    1  LIG1        0.0248
     46 C         -13.8976    5.3441    0.0074 C.ar    1  LIG1       -0.0554
     47 H         -13.9000    7.4947    0.0080 H       1  LIG1        0.0654
     48 C         -11.7241    4.2973    0.0043 C.ar    1  LIG1       -0.0476
     49 C         -13.1185    4.1865    0.0059 C.ar    1  LIG1       -0.0496
     50 H         -11.1086    3.4013    0.0035 H       1  LIG1        0.0627
     51 H         -15.1948    5.2587    0.0092 H       1  LIG1        0.0621
     52 O         -11.3733    7.9238    0.0043 O.3     1  LIG1       -0.5062
     53 H         -12.0791    8.5745    0.0042 H       1  LIG1        0.2922
     54 C         -13.6824    3.0148    0.0065 C.3     1  LIG1       -0.0397
     55 H         -13.0498    2.3147    0.5110 H       1  LIG1        0.0278
     56 H         -13.8372    2.6930   -1.0023 H       1  LIG1        0.0278
     57 H         -14.6243    3.0726    0.5110 H       1  LIG1        0.0278
@<TRIPOS>BOND
     1    41    39    1
     2    56    54    1
     3    38    35    1
     4    11     9    1
     5    10     9    1
     6    26    25    1
     7    25    33    1
     8    24    20    1
     9    21    19    1
    10    19    20   ar
    11    19    16   ar
    12    20    17   ar
    13     7     3    1
    14    16     5    1
    15    16    14   ar
    16    13    12    1
    17     5     4   ar
    18     5     6   ar
    19    12     4    1
    20     4     3   ar
    21     6     1   ar
    22     3     2   ar
    23     1     2   ar
    24     1     9    1
    25     2     8    1
    26    17    29    1
    27    17    15   ar
    28    29    30    2
    29    33    27    1
    30    36    35    1
    31    35    18    1
    32    35    37    1
    33    34    30    1
    34    30    31    1
    35    32    31    2
    36    32    45    1
    37    50    48    1
    38    31    39    1
    39    45    48   ar
    40    45    43   ar
    41    53    52    1
    42    48    49   ar
    43    52    43    1
    44    39    42    1
    45    39    40    1
    46    43    44   ar
    47    49    54    1
    48    49    46   ar
    49    54    57    1
    50    54    55    1
    51    44    46   ar
    52    44    47    1
    53    46    51    1
    54    14    15   ar
    55    14    23    1
    56    23    22    3
