@<TRIPOS>MOLECULE
mol_data/noopt/geoms/mol2/6hf6aa(70)4di(100)13af(330).out
 46 49 0 0 0
SMALL
GASTEIGER

@<TRIPOS>ATOM
      1 C          -4.5775   -2.0270    0.0001 C.ar    1  LIG1        0.1170
      2 C          -3.1706   -2.0270    0.0001 C.ar    1  LIG1       -0.0186
      3 C          -2.5039   -0.8004    0.0001 C.ar    1  LIG1       -0.0148
      4 C          -3.2580    0.3743   -0.0001 C.ar    1  LIG1        0.1429
      5 C          -4.6612    0.2715   -0.0003 C.ar    1  LIG1        0.1158
      6 N          -5.3207   -0.9034   -0.0001 N.ar    1  LIG1       -0.2287
      7 H          -1.4054   -0.7607   -0.0009 H       1  LIG1        0.0656
      8 H          -2.5135   -3.1487    0.0004 H       1  LIG1        0.0653
      9 N          -5.2431   -3.1437    0.0002 N.pl3   1  LIG1       -0.3431
     10 H          -6.1151   -3.0120   -0.4712 H       1  LIG1        0.1437
     11 H          -4.7125   -3.8481   -0.4712 H       1  LIG1        0.1437
     12 O          -2.6846    1.5410   -0.0003 O.3     1  LIG1       -0.5046
     13 H          -3.3554    2.2278   -0.0003 H       1  LIG1        0.2922
     14 C          -6.1548    1.6809   -1.1410 C.ar    1  LIG1        0.0375
     15 C          -5.4065    1.3366   -0.0004 C.ar    1  LIG1        0.0221
     16 C          -5.4851    2.1622    1.1227 C.ar    1  LIG1       -0.0490
     17 C          -6.3008    3.2938    1.0691 C.ar    1  LIG1       -0.0350
     18 C          -7.0106    3.5543   -0.1174 C.ar    1  LIG1        0.0722
     19 N          -6.9466    2.7686   -1.2100 N.ar    1  LIG1       -0.2543
     20 H          -4.9141    1.9260    2.0317 H       1  LIG1        0.0625
     21 H          -6.1145    0.9436   -2.2109 H       1  LIG1        0.0836
     22 H          -6.4076    4.0940    2.0880 H       1  LIG1        0.0639
     23 C          -8.4257    5.1041    0.9313 C.ar    1  LIG1        0.0616
     24 C          -9.2532    6.2324    0.7718 C.ar    1  LIG1       -0.0343
     25 C          -7.7830    4.5953   -0.2158 C.ar    1  LIG1        0.0180
     26 C          -9.4337    6.8298   -0.4736 C.ar    1  LIG1        0.0026
     27 H          -9.7588    6.6411    1.6439 H       1  LIG1        0.0637
     28 C          -7.9628    5.1913   -1.4594 C.ar    1  LIG1       -0.0478
     29 C          -8.7886    6.3118   -1.5973 C.ar    1  LIG1       -0.0407
     30 H          -7.4563    4.7802   -2.3289 H       1  LIG1        0.0627
     31 N          -8.1821    4.1381    3.1659 N.1     1  LIG1       -0.1908
     32 C          -8.2963    4.5908    2.1187 C.1     1  LIG1        0.0998
     33 C          -8.9531    6.8648   -2.7627 C.3     1  LIG1       -0.0391
     34 H          -9.9645    7.2006   -2.8585 H       1  LIG1        0.0278
     35 H          -8.7405    6.1498   -3.5299 H       1  LIG1        0.0278
     36 H          -8.2897    7.6988   -2.8585 H       1  LIG1        0.0278
     37 C         -10.2048    7.8705   -0.5846 C.ar    1  LIG1        0.0503
     38 C          -9.9693    9.0870   -1.1438 C.ar    1  LIG1        0.0052
     39 C         -11.1619    9.8652   -0.9928 C.ar    1  LIG1        0.1347
     40 C         -12.0743    9.0894   -0.3496 C.ar    1  LIG1        0.0441
     41 N         -11.4923    7.8675   -0.0974 N.ar    1  LIG1       -0.3576
     42 H         -11.9322    7.1041    0.3628 H       1  LIG1        0.1654
     43 H         -13.2959    9.3479    0.0121 H       1  LIG1        0.0844
     44 H          -8.8632    9.4703   -1.7091 H       1  LIG1        0.0675
     45 O         -11.3427   11.0879   -1.3956 O.3     1  LIG1       -0.5053
     46 H         -12.2825   11.2569   -1.4949 H       1  LIG1        0.2922
@<TRIPOS>BOND
     1    35    33    1
     2    34    33    1
     3    36    33    1
     4    33    29    1
     5    30    28    1
     6    21    14    1
     7    44    38    1
     8    29    28   ar
     9    29    26   ar
    10    46    45    1
    11    28    25   ar
    12    45    39    1
    13    19    14   ar
    14    19    18   ar
    15    38    39   ar
    16    38    37   ar
    17    14    15   ar
    18    39    40   ar
    19    37    26    1
    20    37    41   ar
    21    26    24   ar
    22    11     9    1
    23    10     9    1
    24    40    41   ar
    25    40    43    1
    26    25    18    1
    27    25    23   ar
    28    18    17   ar
    29    41    42    1
    30     7     3    1
    31    15     5    1
    32    15    16   ar
    33    13    12    1
    34    12     4    1
    35     5     6   ar
    36     5     4   ar
    37     6     1   ar
    38     4     3   ar
    39     1     2   ar
    40     1     9    1
    41     3     2   ar
    42     2     8    1
    43    24    23   ar
    44    24    27    1
    45    23    32    1
    46    17    16   ar
    47    17    22    1
    48    16    20    1
    49    32    31    3
