@<TRIPOS>MOLECULE
mol_data/noopt/geoms/mol2/6hf6hf-6hf6hf-.out
 50 48 0 0 0
SMALL
GASTEIGER

@<TRIPOS>ATOM
      1 C          -4.5775   -2.0270    0.0001 C.ar    1  LIG1        0.1168
      2 C          -3.1706   -2.0270    0.0001 C.ar    1  LIG1       -0.0215
      3 C          -2.5039   -0.8004    0.0001 C.ar    1  LIG1       -0.0487
      4 C          -3.2580    0.3743   -0.0001 C.ar    1  LIG1        0.0104
      5 C          -4.6612    0.2715   -0.0003 C.ar    1  LIG1        0.0842
      6 N          -5.3207   -0.9034   -0.0001 N.ar    1  LIG1       -0.2317
      7 H          -1.4054   -0.7607   -0.0009 H       1  LIG1        0.0625
      8 H          -2.5135   -3.1487    0.0004 H       1  LIG1        0.0652
      9 N          -5.2431   -3.1437    0.0002 N.pl3   1  LIG1       -0.3431
     10 H          -6.1151   -3.0120   -0.4712 H       1  LIG1        0.1437
     11 H          -4.7125   -3.8481   -0.4712 H       1  LIG1        0.1437
     12 O          -2.6846    1.5410   -0.0003 O.3     2  HOH2       -0.2528
     13 H          -3.3554    2.2278   -0.0003 H       3  UNK3        0.0000
     14 C          -4.8196    2.6153   -0.0003 C.ar    1  LIG1        0.1448
     15 C          -5.4065    1.3366   -0.0004 C.ar    1  LIG1        0.0427
     16 C          -6.7994    1.2424   -0.0003 C.ar    1  LIG1       -0.0394
     17 C          -7.5524    2.4178   -0.0003 C.ar    1  LIG1        0.0110
     18 C          -6.8736    3.6502   -0.0004 C.ar    1  LIG1        0.0843
     19 N          -5.5307    3.7594   -0.0003 N.ar    1  LIG1       -0.2294
     20 H          -7.2937    0.2606   -0.0014 H       1  LIG1        0.0632
     21 N          -3.5270    2.7543   -0.0003 N.pl3   1  LIG1       -0.2488
     22 H          -3.1083    1.9782   -0.4717 H       0  HOH0        0.2528
     23 H          -3.2830    3.6018   -0.4717 H       1  LIG1        0.1715
     24 O          -8.8520    2.3834   -0.0004 O.3     4  HOH4       -0.4105
     25 H          -9.1484    1.4703   -0.0004 H       0  HOH0        0.2052
     26 C          -8.9376    4.7719   -0.0001 C.ar    1  LIG1        0.1448
     27 C          -7.5307    4.7719   -0.0003 C.ar    1  LIG1        0.0427
     28 C          -6.8640    5.9985   -0.0001 C.ar    1  LIG1       -0.0394
     29 C          -7.6181    7.1732    0.0002 C.ar    1  LIG1        0.0110
     30 C          -9.0213    7.0704    0.0002 C.ar    1  LIG1        0.0844
     31 N          -9.6808    5.8955    0.0002 N.ar    1  LIG1       -0.2294
     32 H          -5.7655    6.0382   -0.0012 H       1  LIG1        0.0632
     33 N          -9.6032    3.6552   -0.0002 N.pl3   1  LIG1       -0.2488
     34 H         -10.4752    3.7869   -0.4716 H       1  LIG1        0.1715
     35 H          -9.0726    2.9509   -0.4716 H       0  HOH0        0.2052
     36 O          -7.0447    8.3399    0.0002 O.3     5  HOH5       -0.2528
     37 H          -7.7156    9.0266    0.0002 H       6  UNK6        0.0000
     38 C          -9.1798    9.4141    0.0008 C.ar    1  LIG1        0.1443
     39 C          -9.7667    8.1355    0.0005 C.ar    1  LIG1        0.0456
     40 C         -11.1596    8.0413    0.0008 C.ar    1  LIG1       -0.0061
     41 C         -11.9126    9.2167    0.0012 C.ar    1  LIG1        0.1356
     42 C         -11.2338   10.4491    0.0013 C.ar    1  LIG1        0.0712
     43 N          -9.8909   10.5583    0.0012 N.ar    1  LIG1       -0.2348
     44 H         -11.6539    7.0595   -0.0005 H       1  LIG1        0.0662
     45 H         -11.8909   11.5707    0.0018 H       1  LIG1        0.0867
     46 N          -7.8872    9.5532    0.0006 N.pl3   1  LIG1       -0.2488
     47 H          -7.4685    8.7770   -0.4708 H       0  HOH0        0.2528
     48 H          -7.6432   10.4006   -0.4709 H       1  LIG1        0.1715
     49 O         -13.2122    9.1823    0.0013 O.3     1  LIG1       -0.5052
     50 H         -13.5085    8.2691    0.0014 H       1  LIG1        0.2922
@<TRIPOS>BOND
     1    23    21    1
     2    22    12    1
     3    35    24    1
     4    34    33    1
     5    11     9    1
     6    10     9    1
     7    48    46    1
     8    47    36    1
     9    20    16    1
    10    32    28    1
    11     7     3    1
    12    44    40    1
    13    25    24    1
    14    15    16   ar
    15    15     5    1
    16    15    14   ar
    17    18    17   ar
    18    18    27    1
    19    18    19   ar
    20    16    17   ar
    21     5     6   ar
    22     5     4   ar
    23    27    26   ar
    24    27    28   ar
    25    14    19   ar
    26    14    21    1
    27    33    26    1
    28     6     1   ar
    29     4     3   ar
    30    26    31   ar
    31    28    29   ar
    32     1     2   ar
    33     1     9    1
    34     2     3   ar
    35     2     8    1
    36    31    30   ar
    37    30    29   ar
    38    30    39    1
    39    39    40   ar
    40    39    38   ar
    41    46    38    1
    42    40    41   ar
    43    38    43   ar
    44    41    42   ar
    45    41    49    1
    46    43    42   ar
    47    42    45    1
    48    49    50    1
