@<TRIPOS>MOLECULE
mol_data/noopt/geoms/mol2/6hf6hf6hf-6hf-.out
 50 51 0 0 0
SMALL
GASTEIGER

@<TRIPOS>ATOM
      1 C          -4.5775   -2.0270    0.0001 C.ar    1  LIG1        0.1170
      2 C          -3.1706   -2.0270    0.0001 C.ar    1  LIG1       -0.0186
      3 C          -2.5039   -0.8004    0.0001 C.ar    1  LIG1       -0.0148
      4 C          -3.2580    0.3743   -0.0001 C.ar    1  LIG1        0.1429
      5 C          -4.6612    0.2715   -0.0003 C.ar    1  LIG1        0.1176
      6 N          -5.3207   -0.9034   -0.0001 N.ar    1  LIG1       -0.2287
      7 H          -1.4054   -0.7607   -0.0009 H       1  LIG1        0.0656
      8 H          -2.5135   -3.1487    0.0004 H       1  LIG1        0.0653
      9 N          -5.2431   -3.1437    0.0002 N.pl3   1  LIG1       -0.3431
     10 H          -6.1151   -3.0120   -0.4712 H       1  LIG1        0.1437
     11 H          -4.7125   -3.8481   -0.4712 H       1  LIG1        0.1437
     12 O          -2.6846    1.5410   -0.0003 O.3     1  LIG1       -0.5046
     13 H          -3.3554    2.2278   -0.0003 H       1  LIG1        0.2922
     14 C          -6.8088    1.2233   -0.0003 C.ar    1  LIG1        0.1262
     15 C          -5.4065    1.3366   -0.0004 C.ar    1  LIG1        0.0441
     16 C          -4.8408    2.6129   -0.0003 C.ar    1  LIG1       -0.0393
     17 C          -5.6871    3.7231   -0.0003 C.ar    1  LIG1        0.0110
     18 C          -7.0774    3.5076   -0.0004 C.ar    1  LIG1        0.0843
     19 N          -7.6401    2.2834   -0.0003 N.ar    1  LIG1       -0.2310
     20 H          -3.7491    2.7410   -0.0014 H       1  LIG1        0.0632
     21 N          -7.3823    0.0566   -0.0003 N.pl3   1  LIG1       -0.3426
     22 H          -8.2621    0.1177   -0.4717 H       1  LIG1        0.1437
     23 H          -6.7967   -0.6027   -0.4717 H       1  LIG1        0.1437
     24 O          -5.2095    4.9322   -0.0004 O.3     2  HOH2       -0.2528
     25 H          -5.9335    5.5627   -0.0004 H       3  UNK3        0.0000
     26 C          -7.4241    5.8310   -0.0000 C.ar    1  LIG1        0.1450
     27 C          -7.9061    4.5092   -0.0003 C.ar    1  LIG1        0.0456
     28 C          -9.2869    4.3031   -0.0001 C.ar    1  LIG1       -0.0055
     29 C         -10.1321    5.4140    0.0002 C.ar    1  LIG1        0.1436
     30 C          -9.5548    6.6971    0.0002 C.ar    1  LIG1        0.1178
     31 N          -8.2251    6.9141    0.0002 N.ar    1  LIG1       -0.2263
     32 H          -9.7005    3.2847   -0.0012 H       1  LIG1        0.0662
     33 N          -6.1469    6.0737   -0.0001 N.pl3   1  LIG1       -0.2488
     34 H          -5.6671    5.3338   -0.4716 H       0  HOH0        0.2528
     35 H          -5.9720    6.9380   -0.4716 H       1  LIG1        0.1715
     36 O         -11.4247    5.2750    0.0002 O.3     1  LIG1       -0.5046
     37 H         -11.6466    4.3410    0.0002 H       1  LIG1        0.2922
     38 C          -9.7132    9.0408    0.0008 C.ar    1  LIG1        0.1257
     39 C         -10.3001    7.7622    0.0005 C.ar    1  LIG1        0.0469
     40 C         -11.6930    7.6680    0.0008 C.ar    1  LIG1       -0.0061
     41 C         -12.4461    8.8434    0.0012 C.ar    1  LIG1        0.1356
     42 C         -11.7673   10.0758    0.0013 C.ar    1  LIG1        0.0711
     43 N         -10.4244   10.1850    0.0012 N.ar    1  LIG1       -0.2364
     44 H         -12.1874    6.6862   -0.0005 H       1  LIG1        0.0662
     45 H         -12.4244   11.1974    0.0018 H       1  LIG1        0.0867
     46 N          -8.4207    9.1799    0.0006 N.pl3   1  LIG1       -0.3426
     47 H          -8.0020    8.4037   -0.4708 H       1  LIG1        0.1437
     48 H          -8.1767   10.0273   -0.4709 H       1  LIG1        0.1437
     49 O         -13.7456    8.8089    0.0013 O.3     1  LIG1       -0.5052
     50 H         -14.0420    7.8958    0.0014 H       1  LIG1        0.2922
@<TRIPOS>BOND
     1    23    21    1
     2    22    21    1
     3    35    33    1
     4    34    24    1
     5    11     9    1
     6    10     9    1
     7    48    46    1
     8    47    46    1
     9    20    16    1
    10    32    28    1
    11     7     3    1
    12    44    40    1
    13    15     5    1
    14    15    14   ar
    15    15    16   ar
    16    18    19   ar
    17    18    27    1
    18    18    17   ar
    19    13    12    1
    20     5     6   ar
    21     5     4   ar
    22    12     4    1
    23    14    21    1
    24    14    19   ar
    25    16    17   ar
    26    27    28   ar
    27    27    26   ar
    28    33    26    1
    29     6     1   ar
    30     4     3   ar
    31    28    29   ar
    32    26    31   ar
    33     1     2   ar
    34     1     9    1
    35     2     3   ar
    36     2     8    1
    37    29    36    1
    38    29    30   ar
    39    36    37    1
    40    30    31   ar
    41    30    39    1
    42    39    40   ar
    43    39    38   ar
    44    46    38    1
    45    40    41   ar
    46    38    43   ar
    47    41    42   ar
    48    41    49    1
    49    43    42   ar
    50    42    45    1
    51    49    50    1
