@<TRIPOS>MOLECULE
mol_data/noopt/geoms/mol2/6hf6hf6hf6hf-.out
 50 51 0 0 0
SMALL
GASTEIGER

@<TRIPOS>ATOM
      1 C          -4.5775   -2.0270    0.0001 C.ar    1  LIG1        0.1170
      2 C          -3.1706   -2.0270    0.0001 C.ar    1  LIG1       -0.0186
      3 C          -2.5039   -0.8004    0.0001 C.ar    1  LIG1       -0.0148
      4 C          -3.2580    0.3743   -0.0001 C.ar    1  LIG1        0.1429
      5 C          -4.6612    0.2715   -0.0003 C.ar    1  LIG1        0.1177
      6 N          -5.3207   -0.9034   -0.0001 N.ar    1  LIG1       -0.2287
      7 H          -1.4054   -0.7607   -0.0009 H       1  LIG1        0.0656
      8 H          -2.5135   -3.1487    0.0004 H       1  LIG1        0.0653
      9 N          -5.2431   -3.1437    0.0002 N.pl3   1  LIG1       -0.3431
     10 H          -6.1151   -3.0120   -0.4712 H       1  LIG1        0.1437
     11 H          -4.7125   -3.8481   -0.4712 H       1  LIG1        0.1437
     12 O          -2.6846    1.5410   -0.0003 O.3     1  LIG1       -0.5046
     13 H          -3.3554    2.2278   -0.0003 H       1  LIG1        0.2922
     14 C          -6.8088    1.2233   -0.0003 C.ar    1  LIG1        0.1264
     15 C          -5.4065    1.3366   -0.0004 C.ar    1  LIG1        0.0470
     16 C          -4.8408    2.6129   -0.0003 C.ar    1  LIG1       -0.0055
     17 C          -5.6871    3.7231   -0.0003 C.ar    1  LIG1        0.1436
     18 C          -7.0774    3.5076   -0.0004 C.ar    1  LIG1        0.1177
     19 N          -7.6401    2.2834   -0.0003 N.ar    1  LIG1       -0.2280
     20 H          -3.7491    2.7410   -0.0014 H       1  LIG1        0.0662
     21 N          -7.3823    0.0566   -0.0003 N.pl3   1  LIG1       -0.3426
     22 H          -8.2621    0.1177   -0.4717 H       1  LIG1        0.1437
     23 H          -6.7967   -0.6027   -0.4717 H       1  LIG1        0.1437
     24 O          -5.2095    4.9322   -0.0004 O.3     1  LIG1       -0.5046
     25 H          -5.9335    5.5627   -0.0004 H       1  LIG1        0.2922
     26 C          -9.2948    4.2833   -0.0001 C.ar    1  LIG1        0.1262
     27 C          -7.9061    4.5092   -0.0003 C.ar    1  LIG1        0.0441
     28 C          -7.4450    5.8270   -0.0001 C.ar    1  LIG1       -0.0393
     29 C          -8.3780    6.8653    0.0002 C.ar    1  LIG1        0.0110
     30 C          -9.7465    6.5385    0.0002 C.ar    1  LIG1        0.0843
     31 N         -10.2087    5.2730    0.0002 N.ar    1  LIG1       -0.2310
     32 H          -6.3672    6.0425   -0.0012 H       1  LIG1        0.0632
     33 N          -9.7724    3.0742   -0.0002 N.pl3   1  LIG1       -0.3426
     34 H         -10.6542    3.0642   -0.4716 H       1  LIG1        0.1437
     35 H          -9.1355    2.4643   -0.4716 H       1  LIG1        0.1437
     36 O          -7.9993    8.1090    0.0002 O.3     2  HOH2       -0.2528
     37 H          -8.7717    8.6791    0.0002 H       3  UNK3        0.0000
     38 C         -10.2792    8.8264    0.0008 C.ar    1  LIG1        0.1443
     39 C         -10.6531    7.4702    0.0005 C.ar    1  LIG1        0.0456
     40 C         -12.0128    7.1535    0.0008 C.ar    1  LIG1       -0.0061
     41 C         -12.9448    8.1927    0.0012 C.ar    1  LIG1        0.1356
     42 C         -12.4727    9.5181    0.0013 C.ar    1  LIG1        0.0712
     43 N         -11.1648    9.8416    0.0012 N.ar    1  LIG1       -0.2348
     44 H         -12.3431    6.1051   -0.0005 H       1  LIG1        0.0662
     45 H         -13.3014   10.5197    0.0018 H       1  LIG1        0.0867
     46 N          -9.0257    9.1713    0.0006 N.pl3   1  LIG1       -0.2488
     47 H          -8.4878    8.4724   -0.4708 H       0  HOH0        0.2528
     48 H          -8.9209   10.0469   -0.4709 H       1  LIG1        0.1715
     49 O         -14.2220    7.9501    0.0013 O.3     1  LIG1       -0.5052
     50 H         -14.3679    7.0012    0.0014 H       1  LIG1        0.2922
@<TRIPOS>BOND
     1    23    21    1
     2    22    21    1
     3    35    33    1
     4    34    33    1
     5    11     9    1
     6    10     9    1
     7    48    46    1
     8    47    36    1
     9    20    16    1
    10    32    28    1
    11     7     3    1
    12    44    40    1
    13    15     5    1
    14    15    14   ar
    15    15    16   ar
    16    25    24    1
    17    18    19   ar
    18    18    27    1
    19    18    17   ar
    20    24    17    1
    21    13    12    1
    22     5     6   ar
    23     5     4   ar
    24    12     4    1
    25    14    21    1
    26    14    19   ar
    27    16    17   ar
    28    27    26   ar
    29    27    28   ar
    30    33    26    1
    31     6     1   ar
    32     4     3   ar
    33    26    31   ar
    34    28    29   ar
    35     1     2   ar
    36     1     9    1
    37     2     3   ar
    38     2     8    1
    39    31    30   ar
    40    30    29   ar
    41    30    39    1
    42    39    40   ar
    43    39    38   ar
    44    46    38    1
    45    40    41   ar
    46    38    43   ar
    47    41    42   ar
    48    41    49    1
    49    43    42   ar
    50    42    45    1
    51    49    50    1
