@<TRIPOS>MOLECULE
mol_data/noopt/geoms/mol2/6hf6hf6hf.out
 38 40 0 0 0
SMALL
GASTEIGER

@<TRIPOS>ATOM
      1 C          -4.5775   -2.0270    0.0001 C.ar    1  LIG1        0.1170
      2 C          -3.1706   -2.0270    0.0001 C.ar    1  LIG1       -0.0186
      3 C          -2.5039   -0.8004    0.0001 C.ar    1  LIG1       -0.0148
      4 C          -3.2580    0.3743   -0.0001 C.ar    1  LIG1        0.1429
      5 C          -4.6612    0.2715   -0.0003 C.ar    1  LIG1        0.1177
      6 N          -5.3207   -0.9034   -0.0001 N.ar    1  LIG1       -0.2287
      7 H          -1.4054   -0.7607   -0.0009 H       1  LIG1        0.0656
      8 H          -2.5135   -3.1487    0.0004 H       1  LIG1        0.0653
      9 N          -5.2431   -3.1437    0.0002 N.pl3   1  LIG1       -0.3431
     10 H          -6.1151   -3.0120   -0.4712 H       1  LIG1        0.1437
     11 H          -4.7125   -3.8481   -0.4712 H       1  LIG1        0.1437
     12 O          -2.6846    1.5410   -0.0003 O.3     1  LIG1       -0.5046
     13 H          -3.3554    2.2278   -0.0003 H       1  LIG1        0.2922
     14 C          -6.8088    1.2233   -0.0003 C.ar    1  LIG1        0.1264
     15 C          -5.4065    1.3366   -0.0004 C.ar    1  LIG1        0.0470
     16 C          -4.8408    2.6129   -0.0003 C.ar    1  LIG1       -0.0055
     17 C          -5.6871    3.7231   -0.0003 C.ar    1  LIG1        0.1436
     18 C          -7.0774    3.5076   -0.0004 C.ar    1  LIG1        0.1177
     19 N          -7.6401    2.2834   -0.0003 N.ar    1  LIG1       -0.2280
     20 H          -3.7491    2.7410   -0.0014 H       1  LIG1        0.0662
     21 N          -7.3823    0.0566   -0.0003 N.pl3   1  LIG1       -0.3426
     22 H          -8.2621    0.1177   -0.4717 H       1  LIG1        0.1437
     23 H          -6.7967   -0.6027   -0.4717 H       1  LIG1        0.1437
     24 O          -5.2095    4.9322   -0.0004 O.3     1  LIG1       -0.5046
     25 H          -5.9335    5.5627   -0.0004 H       1  LIG1        0.2922
     26 C          -9.2948    4.2833   -0.0001 C.ar    1  LIG1        0.1257
     27 C          -7.9061    4.5092   -0.0003 C.ar    1  LIG1        0.0469
     28 C          -7.4450    5.8270   -0.0001 C.ar    1  LIG1       -0.0061
     29 C          -8.3780    6.8653    0.0002 C.ar    1  LIG1        0.1356
     30 C          -9.7465    6.5385    0.0002 C.ar    1  LIG1        0.0711
     31 N         -10.2087    5.2730    0.0002 N.ar    1  LIG1       -0.2364
     32 H          -6.3672    6.0425   -0.0012 H       1  LIG1        0.0662
     33 H         -10.6531    7.4701    0.0005 H       1  LIG1        0.0867
     34 N          -9.7724    3.0742   -0.0002 N.pl3   1  LIG1       -0.3426
     35 H         -10.6542    3.0642   -0.4716 H       1  LIG1        0.1437
     36 H          -9.1355    2.4643   -0.4716 H       1  LIG1        0.1437
     37 O          -7.9993    8.1090    0.0002 O.3     1  LIG1       -0.5052
     38 H          -8.7717    8.6791    0.0002 H       1  LIG1        0.2922
@<TRIPOS>BOND
     1    23    21    1
     2    22    21    1
     3    36    34    1
     4    35    34    1
     5    11     9    1
     6    10     9    1
     7    20    16    1
     8    32    28    1
     9     7     3    1
    10    15     5    1
    11    15    14   ar
    12    15    16   ar
    13    25    24    1
    14    18    19   ar
    15    18    27    1
    16    18    17   ar
    17    24    17    1
    18    13    12    1
    19     5     6   ar
    20     5     4   ar
    21    12     4    1
    22    14    21    1
    23    14    19   ar
    24    16    17   ar
    25    27    26   ar
    26    27    28   ar
    27    34    26    1
    28     6     1   ar
    29     4     3   ar
    30    26    31   ar
    31    28    29   ar
    32     1     2   ar
    33     1     9    1
    34     3     2   ar
    35     2     8    1
    36    31    30   ar
    37    30    29   ar
    38    30    33    1
    39    29    37    1
    40    37    38    1
