@<TRIPOS>MOLECULE
mol_data/noopt/geoms/mol2/6hf6hf-6hf-6hf-.out
 50 51 0 0 0
SMALL
GASTEIGER

@<TRIPOS>ATOM
      1 C          -4.5775   -2.0270    0.0001 C.ar    1  LIG1        0.1168
      2 C          -3.1706   -2.0270    0.0001 C.ar    1  LIG1       -0.0215
      3 C          -2.5039   -0.8004    0.0001 C.ar    1  LIG1       -0.0487
      4 C          -3.2580    0.3743   -0.0001 C.ar    1  LIG1        0.0104
      5 C          -4.6612    0.2715   -0.0003 C.ar    1  LIG1        0.0843
      6 N          -5.3207   -0.9034   -0.0001 N.ar    1  LIG1       -0.2317
      7 H          -1.4054   -0.7607   -0.0009 H       1  LIG1        0.0625
      8 H          -2.5135   -3.1487    0.0004 H       1  LIG1        0.0652
      9 N          -5.2431   -3.1437    0.0002 N.pl3   1  LIG1       -0.3431
     10 H          -6.1151   -3.0120   -0.4712 H       1  LIG1        0.1437
     11 H          -4.7125   -3.8481   -0.4712 H       1  LIG1        0.1437
     12 O          -2.6846    1.5410   -0.0003 O.3     2  HOH2       -0.2528
     13 H          -3.3554    2.2278   -0.0003 H       3  UNK3        0.0000
     14 C          -4.8196    2.6153   -0.0003 C.ar    1  LIG1        0.1450
     15 C          -5.4065    1.3366   -0.0004 C.ar    1  LIG1        0.0456
     16 C          -6.7994    1.2424   -0.0003 C.ar    1  LIG1       -0.0055
     17 C          -7.5524    2.4178   -0.0003 C.ar    1  LIG1        0.1436
     18 C          -6.8736    3.6502   -0.0004 C.ar    1  LIG1        0.1178
     19 N          -5.5307    3.7594   -0.0003 N.ar    1  LIG1       -0.2263
     20 H          -7.2937    0.2606   -0.0014 H       1  LIG1        0.0662
     21 N          -3.5270    2.7543   -0.0003 N.pl3   1  LIG1       -0.2488
     22 H          -3.1083    1.9782   -0.4717 H       0  HOH0        0.2528
     23 H          -3.2830    3.6018   -0.4717 H       1  LIG1        0.1715
     24 O          -8.8520    2.3834   -0.0004 O.3     1  LIG1       -0.5046
     25 H          -9.1484    1.4703   -0.0004 H       1  LIG1        0.2922
     26 C          -6.8427    5.9991   -0.0000 C.ar    1  LIG1        0.1264
     27 C          -7.5307    4.7719   -0.0003 C.ar    1  LIG1        0.0470
     28 C          -8.9267    4.7902   -0.0001 C.ar    1  LIG1       -0.0055
     29 C          -9.5826    6.0224    0.0002 C.ar    1  LIG1        0.1436
     30 C          -8.8067    7.1961    0.0002 C.ar    1  LIG1        0.1177
     31 N          -7.4594    7.1968    0.0002 N.ar    1  LIG1       -0.2280
     32 H          -9.4985    3.8514   -0.0012 H       1  LIG1        0.0662
     33 N          -5.5432    6.0336   -0.0001 N.pl3   1  LIG1       -0.3426
     34 H          -5.1884    5.2262   -0.4716 H       1  LIG1        0.1437
     35 H          -5.2317    6.8586   -0.4716 H       1  LIG1        0.1437
     36 O         -10.8807    6.0928    0.0002 O.3     1  LIG1       -0.5046
     37 H         -11.2497    5.2065    0.0002 H       1  LIG1        0.2922
     38 C          -8.5867    9.5349    0.0008 C.ar    1  LIG1        0.1257
     39 C          -9.3714    8.3671    0.0005 C.ar    1  LIG1        0.0469
     40 C         -10.7613    8.4977    0.0008 C.ar    1  LIG1       -0.0061
     41 C         -11.3158    9.7788    0.0012 C.ar    1  LIG1        0.1356
     42 C         -10.4479   10.8862    0.0013 C.ar    1  LIG1        0.0711
     43 N          -9.1049   10.7784    0.0012 N.ar    1  LIG1       -0.2364
     44 H         -11.4069    7.6081   -0.0005 H       1  LIG1        0.0662
     45 H         -10.9164   12.0988    0.0018 H       1  LIG1        0.0867
     46 N          -7.2886    9.4646    0.0006 N.pl3   1  LIG1       -0.3426
     47 H          -7.0000    8.6313   -0.4708 H       1  LIG1        0.1437
     48 H          -6.9117   10.2618   -0.4708 H       1  LIG1        0.1437
     49 O         -12.6041    9.9535    0.0014 O.3     1  LIG1       -0.5052
     50 H         -13.0432    9.0998    0.0014 H       1  LIG1        0.2922
@<TRIPOS>BOND
     1    23    21    1
     2    22    12    1
     3    35    33    1
     4    34    33    1
     5    11     9    1
     6    10     9    1
     7    48    46    1
     8    47    46    1
     9    20    16    1
    10    32    28    1
    11     7     3    1
    12    44    40    1
    13    25    24    1
    14    15    16   ar
    15    15     5    1
    16    15    14   ar
    17    24    17    1
    18    18    17   ar
    19    18    27    1
    20    18    19   ar
    21    16    17   ar
    22     5     6   ar
    23     5     4   ar
    24    27    28   ar
    25    27    26   ar
    26    14    19   ar
    27    14    21    1
    28    33    26    1
    29     6     1   ar
    30     4     3   ar
    31    28    29   ar
    32    26    31   ar
    33     1     2   ar
    34     1     9    1
    35     2     3   ar
    36     2     8    1
    37    29    30   ar
    38    29    36    1
    39    30    31   ar
    40    30    39    1
    41    36    37    1
    42    39    40   ar
    43    39    38   ar
    44    46    38    1
    45    40    41   ar
    46    38    43   ar
    47    41    42   ar
    48    41    49    1
    49    43    42   ar
    50    42    45    1
    51    49    50    1
