@<TRIPOS>MOLECULE
mol_data/noopt/geoms/mol2/6hf6hf-.out
 26 25 0 0 0
SMALL
GASTEIGER

@<TRIPOS>ATOM
      1 C          -4.5775   -2.0270    0.0001 C.ar    1  LIG1        0.1168
      2 C          -3.1706   -2.0270    0.0001 C.ar    1  LIG1       -0.0215
      3 C          -2.5039   -0.8004    0.0001 C.ar    1  LIG1       -0.0487
      4 C          -3.2580    0.3743   -0.0001 C.ar    1  LIG1        0.0104
      5 C          -4.6612    0.2715   -0.0003 C.ar    1  LIG1        0.0843
      6 N          -5.3207   -0.9034   -0.0001 N.ar    1  LIG1       -0.2317
      7 H          -1.4054   -0.7607   -0.0009 H       1  LIG1        0.0625
      8 H          -2.5135   -3.1487    0.0004 H       1  LIG1        0.0652
      9 N          -5.2431   -3.1437    0.0002 N.pl3   1  LIG1       -0.3431
     10 H          -6.1151   -3.0120   -0.4712 H       1  LIG1        0.1437
     11 H          -4.7125   -3.8481   -0.4712 H       1  LIG1        0.1437
     12 O          -2.6846    1.5410   -0.0003 O.3     2  HOH2       -0.2528
     13 H          -3.3554    2.2278   -0.0003 H       3  UNK3        0.0000
     14 C          -4.8196    2.6153   -0.0003 C.ar    1  LIG1        0.1443
     15 C          -5.4065    1.3366   -0.0004 C.ar    1  LIG1        0.0456
     16 C          -6.7994    1.2424   -0.0003 C.ar    1  LIG1       -0.0061
     17 C          -7.5524    2.4178   -0.0003 C.ar    1  LIG1        0.1356
     18 C          -6.8736    3.6502   -0.0004 C.ar    1  LIG1        0.0712
     19 N          -5.5307    3.7594   -0.0003 N.ar    1  LIG1       -0.2348
     20 H          -7.2937    0.2606   -0.0014 H       1  LIG1        0.0662
     21 H          -7.5307    4.7719   -0.0003 H       1  LIG1        0.0867
     22 N          -3.5270    2.7543   -0.0003 N.pl3   1  LIG1       -0.2488
     23 H          -3.1083    1.9782   -0.4717 H       0  HOH0        0.2528
     24 H          -3.2830    3.6018   -0.4717 H       1  LIG1        0.1715
     25 O          -8.8520    2.3834   -0.0004 O.3     1  LIG1       -0.5052
     26 H          -9.1484    1.4703   -0.0004 H       1  LIG1        0.2922
@<TRIPOS>BOND
     1    24    22    1
     2    23    12    1
     3    11     9    1
     4    10     9    1
     5    20    16    1
     6     7     3    1
     7    26    25    1
     8    15    16   ar
     9    15     5    1
    10    15    14   ar
    11    25    17    1
    12    18    17   ar
    13    18    21    1
    14    18    19   ar
    15    16    17   ar
    16     5     6   ar
    17     5     4   ar
    18    14    19   ar
    19    14    22    1
    20     6     1   ar
    21     4     3   ar
    22     1     2   ar
    23     1     9    1
    24     3     2   ar
    25     2     8    1
