@<TRIPOS>MOLECULE
mol_data/noopt/geoms/mol2/6hf6hf-4hf6hf.out
 51 51 0 0 0
SMALL
GASTEIGER

@<TRIPOS>ATOM
      1 C          -4.5775   -2.0270    0.0001 C.ar    1  LIG1        0.1168
      2 C          -3.1706   -2.0270    0.0001 C.ar    1  LIG1       -0.0215
      3 C          -2.5039   -0.8004    0.0001 C.ar    1  LIG1       -0.0487
      4 C          -3.2580    0.3743   -0.0001 C.ar    1  LIG1        0.0104
      5 C          -4.6612    0.2715   -0.0003 C.ar    1  LIG1        0.0843
      6 N          -5.3207   -0.9034   -0.0001 N.ar    1  LIG1       -0.2317
      7 H          -1.4054   -0.7607   -0.0009 H       1  LIG1        0.0625
      8 H          -2.5135   -3.1487    0.0004 H       1  LIG1        0.0652
      9 N          -5.2431   -3.1437    0.0002 N.pl3   1  LIG1       -0.3431
     10 H          -6.1151   -3.0120   -0.4712 H       1  LIG1        0.1437
     11 H          -4.7125   -3.8481   -0.4712 H       1  LIG1        0.1437
     12 O          -2.6846    1.5410   -0.0003 O.3     2  HOH2       -0.2528
     13 H          -3.3554    2.2278   -0.0003 H       3  UNK3        0.0000
     14 C          -4.8196    2.6153   -0.0003 C.ar    1  LIG1        0.1450
     15 C          -5.4065    1.3366   -0.0004 C.ar    1  LIG1        0.0456
     16 C          -6.7994    1.2424   -0.0003 C.ar    1  LIG1       -0.0055
     17 C          -7.5524    2.4178   -0.0003 C.ar    1  LIG1        0.1435
     18 C          -6.8736    3.6502   -0.0004 C.ar    1  LIG1        0.1162
     19 N          -5.5307    3.7594   -0.0003 N.ar    1  LIG1       -0.2264
     20 H          -7.2937    0.2606   -0.0014 H       1  LIG1        0.0662
     21 N          -3.5270    2.7543   -0.0003 N.pl3   1  LIG1       -0.2488
     22 H          -3.1083    1.9782   -0.4717 H       0  HOH0        0.2528
     23 H          -3.2830    3.6018   -0.4717 H       1  LIG1        0.1715
     24 O          -8.8520    2.3834   -0.0004 O.3     1  LIG1       -0.5046
     25 H          -9.1484    1.4703   -0.0004 H       1  LIG1        0.2922
     26 C          -6.8310    5.9958    0.0005 C.ar    1  LIG1        0.0346
     27 C          -7.5886    7.1830    0.0022 C.ar    1  LIG1       -0.0320
     28 C          -7.5307    4.7718   -0.0003 C.ar    1  LIG1        0.0252
     29 C          -8.9814    7.1551    0.0023 C.ar    1  LIG1       -0.0050
     30 H          -7.0688    8.1385    0.0030 H       1  LIG1        0.0642
     31 C          -8.9211    4.7434   -0.0001 C.ar    1  LIG1       -0.0424
     32 C          -9.6560    5.9336    0.0011 C.ar    1  LIG1       -0.0087
     33 H          -9.4376    3.7869   -0.0006 H       1  LIG1        0.0631
     34 N          -5.5341    6.0859    0.0002 N.pl3   1  LIG1       -0.3574
     35 H          -5.1452    5.2944   -0.4713 H       1  LIG1        0.1423
     36 H          -5.2583    6.9235   -0.4714 H       1  LIG1        0.1423
     37 O         -10.9556    5.9008    0.0014 O.3     4  HOH4       -0.4105
     38 H         -11.2531    4.9880    0.0015 H       0  HOH0        0.2052
     39 C         -11.0562    8.2567    0.0047 C.ar    1  LIG1        0.1428
     40 C          -9.6493    8.2703    0.0037 C.ar    1  LIG1        0.0274
     41 C          -8.9946    9.5034    0.0047 C.ar    1  LIG1       -0.0076
     42 C          -9.7600   10.6707    0.0063 C.ar    1  LIG1        0.1356
     43 C         -11.1621   10.5543    0.0069 C.ar    1  LIG1        0.0712
     44 N         -11.8102    9.3730    0.0062 N.ar    1  LIG1       -0.2348
     45 H          -7.8965    9.5537    0.0030 H       1  LIG1        0.0662
     46 H         -11.9177   11.6121    0.0085 H       1  LIG1        0.0867
     47 N         -11.7109    7.1336    0.0040 N.pl3   1  LIG1       -0.2488
     48 H         -12.5840    7.2571   -0.4676 H       1  LIG1        0.1715
     49 H         -11.1733    6.4347   -0.4677 H       0  HOH0        0.2052
     50 O          -9.1979   11.8429    0.0071 O.3     1  LIG1       -0.5052
     51 H          -9.8754   12.5231    0.0072 H       1  LIG1        0.2922
@<TRIPOS>BOND
     1    23    21    1
     2    22    12    1
     3    36    34    1
     4    35    34    1
     5    11     9    1
     6    10     9    1
     7    49    37    1
     8    48    47    1
     9    20    16    1
    10     7     3    1
    11    33    31    1
    12    25    24    1
    13    15    16   ar
    14    15     5    1
    15    15    14   ar
    16    24    17    1
    17    18    17   ar
    18    18    28    1
    19    18    19   ar
    20    16    17   ar
    21     5     6   ar
    22     5     4   ar
    23    28    31   ar
    24    28    26   ar
    25    14    19   ar
    26    14    21    1
    27     6     1   ar
    28     4     3   ar
    29    31    32   ar
    30     1     2   ar
    31     1     9    1
    32     3     2   ar
    33     2     8    1
    34    34    26    1
    35    26    27   ar
    36    32    29   ar
    37    37    38    1
    38    27    29   ar
    39    27    30    1
    40    29    40    1
    41    45    41    1
    42    40    39   ar
    43    40    41   ar
    44    47    39    1
    45    39    44   ar
    46    41    42   ar
    47    44    43   ar
    48    42    43   ar
    49    42    50    1
    50    43    46    1
    51    50    51    1
