@<TRIPOS>MOLECULE
mol_data/noopt/geoms/mol2/6hf6fd(340)6hh6ie(60).out
 52 55 0 0 0
SMALL
GASTEIGER

@<TRIPOS>ATOM
      1 C          -4.5775   -2.0270    0.0001 C.ar    1  LIG1        0.1171
      2 C          -3.1706   -2.0270    0.0001 C.ar    1  LIG1       -0.0186
      3 C          -2.5039   -0.8004    0.0001 C.ar    1  LIG1       -0.0148
      4 C          -3.2580    0.3743   -0.0001 C.ar    1  LIG1        0.1430
      5 C          -4.6612    0.2715   -0.0003 C.ar    1  LIG1        0.1194
      6 N          -5.3207   -0.9034   -0.0001 N.ar    1  LIG1       -0.2286
      7 H          -1.4054   -0.7607   -0.0009 H       1  LIG1        0.0656
      8 H          -2.5135   -3.1487    0.0004 H       1  LIG1        0.0653
      9 N          -5.2431   -3.1437    0.0002 N.pl3   1  LIG1       -0.3431
     10 H          -6.1151   -3.0120   -0.4712 H       1  LIG1        0.1437
     11 H          -4.7125   -3.8481   -0.4712 H       1  LIG1        0.1437
     12 O          -2.6846    1.5410   -0.0003 O.3     1  LIG1       -0.5046
     13 H          -3.3554    2.2278   -0.0003 H       1  LIG1        0.2922
     14 C          -6.7489    1.2653    0.4146 C.ar    1  LIG1        0.2225
     15 C          -5.4065    1.3366   -0.0004 C.ar    1  LIG1        0.0666
     16 C          -4.8997    2.5717   -0.4088 C.ar    1  LIG1       -0.0279
     17 C          -5.7431    3.6838   -0.3893 C.ar    1  LIG1        0.0786
     18 C          -7.0712    3.5119    0.0421 C.ar    1  LIG1        0.0955
     19 N          -7.5766    2.3279    0.4396 N.ar    1  LIG1       -0.2111
     20 H          -3.8560    2.6661   -0.7406 H       1  LIG1        0.0639
     21 O          -7.2663    0.1379    0.8037 O.3     1  LIG1       -0.4919
     22 H          -6.5713   -0.5174    0.8996 H       1  LIG1        0.2937
     23 N          -4.9450    5.8888   -1.0870 N.1     1  LIG1       -0.1908
     24 C          -5.3190    4.8555   -0.7600 C.1     1  LIG1        0.1013
     25 C          -9.2843    4.2979    0.0978 C.ar    1  LIG1        0.1262
     26 C          -7.8947    4.5172    0.0780 C.ar    1  LIG1        0.0430
     27 C          -7.4270    5.8325    0.0980 C.ar    1  LIG1       -0.0264
     28 C          -8.3545    6.8750    0.1367 C.ar    1  LIG1        0.0517
     29 C          -9.7244    6.5547    0.1537 C.ar    1  LIG1        0.0954
     30 N         -10.1931    5.2916    0.1350 N.ar    1  LIG1       -0.2299
     31 H          -6.3482    6.0430    0.0826 H       1  LIG1        0.0644
     32 N          -9.7680    3.0913    0.0804 N.pl3   1  LIG1       -0.3426
     33 H         -10.6475    3.0916   -0.3954 H       1  LIG1        0.1437
     34 H          -9.1318    2.4840   -0.3954 H       1  LIG1        0.1437
     35 N          -7.9696    8.1166    0.1564 N.pl3   1  LIG1       -0.3563
     36 H          -7.0890    8.2000   -0.3099 H       1  LIG1        0.1424
     37 H          -8.6487    8.6835   -0.3099 H       1  LIG1        0.1424
     38 C         -11.5771    7.6015   -0.8412 C.ar    1  LIG1        0.0475
     39 C         -10.6262    7.4904    0.1897 C.ar    1  LIG1        0.0244
     40 C         -10.6763    8.4039    1.2442 C.ar    1  LIG1       -0.0339
     41 C         -11.6653    9.3889    1.2336 C.ar    1  LIG1        0.0434
     42 C         -12.5717    9.4189    0.1579 C.ar    1  LIG1        0.0433
     43 N         -12.5380    8.5454   -0.8674 N.ar    1  LIG1       -0.2583
     44 H          -9.9494    8.3490    2.0670 H       1  LIG1        0.0637
     45 H         -13.5101   10.3168    0.1032 H       1  LIG1        0.0842
     46 C         -11.5713    6.7742   -1.8444 C.3     1  LIG1       -0.0217
     47 H         -10.6933    6.1643   -1.7987 H       1  LIG1        0.0293
     48 H         -11.5751    7.3256   -2.7615 H       1  LIG1        0.0293
     49 H         -12.4406    6.1520   -1.7987 H       1  LIG1        0.0293
     50 C         -11.7539   10.2627    2.1920 C.1     1  LIG1       -0.0681
     51 C         -11.8357   11.0701    3.0776 C.1     1  LIG1       -0.1139
     52 H         -11.9086   11.7894    3.8665 H       1  LIG1        0.1232
@<TRIPOS>BOND
     1    48    46    1
     2    46    49    1
     3    46    47    1
     4    46    38    1
     5    23    24    3
     6    43    38   ar
     7    43    42   ar
     8    38    39   ar
     9    24    17    1
    10    20    16    1
    11    11     9    1
    12    10     9    1
    13    16    17   ar
    14    16    15   ar
    15    34    32    1
    16    33    32    1
    17    17    18   ar
    18    37    35    1
    19    36    35    1
    20     7     3    1
    21    15     5    1
    22    15    14   ar
    23    13    12    1
    24    12     4    1
    25     5     6   ar
    26     5     4   ar
    27     6     1   ar
    28     4     3   ar
    29     1     2   ar
    30     1     9    1
    31     3     2   ar
    32     2     8    1
    33    18    26    1
    34    18    19   ar
    35    26    25   ar
    36    26    27   ar
    37    32    25    1
    38    31    27    1
    39    25    30   ar
    40    27    28   ar
    41    45    42    1
    42    30    29   ar
    43    28    29   ar
    44    28    35    1
    45    29    39    1
    46    42    41   ar
    47    39    40   ar
    48    14    19   ar
    49    14    21    1
    50    21    22    1
    51    41    40   ar
    52    41    50    1
    53    40    44    1
    54    50    51    3
    55    51    52    1
