@<TRIPOS>MOLECULE
mol_data/noopt/geoms/mol2/6hf6hf.out
 26 27 0 0 0
SMALL
GASTEIGER

@<TRIPOS>ATOM
      1 C          -4.5775   -2.0270    0.0001 C.ar    1  LIG1        0.1170
      2 C          -3.1706   -2.0270    0.0001 C.ar    1  LIG1       -0.0186
      3 C          -2.5039   -0.8004    0.0001 C.ar    1  LIG1       -0.0148
      4 C          -3.2580    0.3743   -0.0001 C.ar    1  LIG1        0.1429
      5 C          -4.6612    0.2715   -0.0003 C.ar    1  LIG1        0.1177
      6 N          -5.3207   -0.9034   -0.0001 N.ar    1  LIG1       -0.2287
      7 H          -1.4054   -0.7607   -0.0009 H       1  LIG1        0.0656
      8 H          -2.5135   -3.1487    0.0004 H       1  LIG1        0.0653
      9 N          -5.2431   -3.1437    0.0002 N.pl3   1  LIG1       -0.3431
     10 H          -6.1151   -3.0120   -0.4712 H       1  LIG1        0.1437
     11 H          -4.7125   -3.8481   -0.4712 H       1  LIG1        0.1437
     12 O          -2.6846    1.5410   -0.0003 O.3     1  LIG1       -0.5046
     13 H          -3.3554    2.2278   -0.0003 H       1  LIG1        0.2922
     14 C          -6.8088    1.2233   -0.0003 C.ar    1  LIG1        0.1257
     15 C          -5.4065    1.3366   -0.0004 C.ar    1  LIG1        0.0469
     16 C          -4.8408    2.6129   -0.0003 C.ar    1  LIG1       -0.0061
     17 C          -5.6871    3.7231   -0.0003 C.ar    1  LIG1        0.1356
     18 C          -7.0774    3.5076   -0.0004 C.ar    1  LIG1        0.0711
     19 N          -7.6401    2.2834   -0.0003 N.ar    1  LIG1       -0.2364
     20 H          -3.7491    2.7410   -0.0014 H       1  LIG1        0.0662
     21 H          -7.9061    4.5092   -0.0003 H       1  LIG1        0.0867
     22 N          -7.3823    0.0566   -0.0003 N.pl3   1  LIG1       -0.3426
     23 H          -8.2621    0.1177   -0.4717 H       1  LIG1        0.1437
     24 H          -6.7967   -0.6027   -0.4717 H       1  LIG1        0.1437
     25 O          -5.2095    4.9322   -0.0004 O.3     1  LIG1       -0.5052
     26 H          -5.9335    5.5627   -0.0004 H       1  LIG1        0.2922
@<TRIPOS>BOND
     1    24    22    1
     2    23    22    1
     3    11     9    1
     4    10     9    1
     5    20    16    1
     6     7     3    1
     7    15     5    1
     8    15    14   ar
     9    15    16   ar
    10    26    25    1
    11    18    19   ar
    12    18    21    1
    13    18    17   ar
    14    25    17    1
    15    13    12    1
    16     5     6   ar
    17     5     4   ar
    18    12     4    1
    19    14    22    1
    20    14    19   ar
    21    16    17   ar
    22     6     1   ar
    23     4     3   ar
    24     1     2   ar
    25     1     9    1
    26     3     2   ar
    27     2     8    1
