@<TRIPOS>MOLECULE
mol_data/noopt/geoms/mol2/6hg.out
 14 14 0 0 0
SMALL
GASTEIGER

@<TRIPOS>ATOM
      1 C          -4.5775   -2.0270    0.0001 C.ar    1  LIG1        0.1162
      2 C          -3.1706   -2.0270    0.0001 C.ar    1  LIG1       -0.0211
      3 C          -2.5039   -0.8004    0.0001 C.ar    1  LIG1       -0.0439
      4 C          -3.2580    0.3743   -0.0001 C.ar    1  LIG1        0.0230
      5 C          -4.6612    0.2715   -0.0003 C.ar    1  LIG1        0.0428
      6 N          -5.3207   -0.9034   -0.0001 N.ar    1  LIG1       -0.2396
      7 H          -1.4054   -0.7607   -0.0009 H       1  LIG1        0.0630
      8 H          -2.5135   -3.1487    0.0004 H       1  LIG1        0.0652
      9 H          -5.4065    1.3366   -0.0004 H       1  LIG1        0.0841
     10 N          -5.2431   -3.1437    0.0002 N.pl3   1  LIG1       -0.3431
     11 H          -6.1151   -3.0120   -0.4712 H       1  LIG1        0.1437
     12 H          -4.7125   -3.8481   -0.4712 H       1  LIG1        0.1437
     13 S          -2.6846    1.5410   -0.0003 S.3     1  LIG1       -0.1412
     14 H          -3.6000    2.4781   -0.0004 H       1  LIG1        0.1072
@<TRIPOS>BOND
     1    12    10    1
     2    11    10    1
     3     7     3    1
     4     9     5    1
     5    14    13    1
     6     5     4   ar
     7     5     6   ar
     8    13     4    1
     9     4     3   ar
    10     6     1   ar
    11     1     2   ar
    12     1    10    1
    13     2     3   ar
    14     2     8    1
