@<TRIPOS>MOLECULE
mol_data/noopt/geoms/mol2/6hh.out
 15 15 0 0 0
SMALL
GASTEIGER

@<TRIPOS>ATOM
      1 C          -4.5775   -2.0270    0.0001 C.ar    1  LIG1        0.1162
      2 C          -3.1706   -2.0270    0.0001 C.ar    1  LIG1       -0.0204
      3 C          -2.5039   -0.8004    0.0001 C.ar    1  LIG1       -0.0363
      4 C          -3.2580    0.3743   -0.0001 C.ar    1  LIG1        0.0430
      5 C          -4.6612    0.2715   -0.0003 C.ar    1  LIG1        0.0503
      6 N          -5.3207   -0.9034   -0.0001 N.ar    1  LIG1       -0.2389
      7 H          -1.4054   -0.7607   -0.0009 H       1  LIG1        0.0637
      8 H          -2.5135   -3.1487    0.0004 H       1  LIG1        0.0652
      9 H          -5.4065    1.3366   -0.0004 H       1  LIG1        0.0849
     10 N          -5.2431   -3.1437    0.0002 N.pl3   1  LIG1       -0.3431
     11 H          -6.1151   -3.0120   -0.4712 H       1  LIG1        0.1437
     12 H          -4.7125   -3.8481   -0.4712 H       1  LIG1        0.1437
     13 N          -2.6846    1.5410   -0.0003 N.pl3   1  LIG1       -0.3568
     14 H          -1.8048    1.4799   -0.4718 H       1  LIG1        0.1424
     15 H          -3.2703    2.2002   -0.4718 H       1  LIG1        0.1424
@<TRIPOS>BOND
     1    15    13    1
     2    14    13    1
     3    12    10    1
     4    11    10    1
     5     7     3    1
     6     9     5    1
     7     5     4   ar
     8     5     6   ar
     9    13     4    1
    10     4     3   ar
    11     6     1   ar
    12     1     2   ar
    13     1    10    1
    14     2     3   ar
    15     2     8    1
