@<TRIPOS>MOLECULE
mol_data/noopt/geoms/mol2/6hh12ef(350)4ll(240)13ai(350).out
 54 57 0 0 0
SMALL
GASTEIGER

@<TRIPOS>ATOM
      1 C          -4.5775   -2.0270    0.0001 C.ar    1  LIG1        0.1170
      2 C          -3.1706   -2.0270    0.0001 C.ar    1  LIG1       -0.0203
      3 C          -2.5039   -0.8004    0.0001 C.ar    1  LIG1       -0.0356
      4 C          -3.2580    0.3743   -0.0001 C.ar    1  LIG1        0.0541
      5 C          -4.6612    0.2715   -0.0003 C.ar    1  LIG1        0.1299
      6 N          -5.3207   -0.9034   -0.0001 N.ar    1  LIG1       -0.2275
      7 H          -1.4054   -0.7607   -0.0009 H       1  LIG1        0.0638
      8 H          -2.5135   -3.1487    0.0004 H       1  LIG1        0.0652
      9 N          -5.2431   -3.1437    0.0002 N.pl3   1  LIG1       -0.3431
     10 H          -6.1151   -3.0120   -0.4712 H       1  LIG1        0.1437
     11 H          -4.7125   -3.8481   -0.4712 H       1  LIG1        0.1437
     12 N          -2.6846    1.5410   -0.0003 N.pl3   1  LIG1       -0.3562
     13 H          -1.8048    1.4799   -0.4718 H       1  LIG1        0.1424
     14 H          -3.2703    2.2002   -0.4718 H       1  LIG1        0.1424
     15 C          -5.4065    1.3366   -0.0004 C.ar    1  LIG1        0.1747
     16 C          -5.1869    2.6905   -0.1482 C.ar    1  LIG1        0.1140
     17 C          -6.4796    3.3344   -0.0417 C.ar    1  LIG1        0.1792
     18 C          -7.4037    2.3308    0.1641 C.ar    1  LIG1        0.1818
     19 O          -6.7664    1.0900    0.1933 O.2     1  LIG1       -0.4480
     20 C          -4.0535    3.2959   -0.3451 C.1     1  LIG1       -0.0621
     21 C          -3.0062    3.8553   -0.5271 C.1     1  LIG1       -0.1137
     22 H          -2.0732    4.3536   -0.6892 H       1  LIG1        0.1232
     23 O          -6.6984    4.6131   -0.1273 O.3     1  LIG1       -0.5024
     24 H          -7.6444    4.7755   -0.1484 H       1  LIG1        0.2923
     25 C          -9.4992    1.6337   -0.6279 C.ar    1  LIG1        0.1317
     26 C         -10.8888    1.6048   -0.4011 C.ar    1  LIG1       -0.0066
     27 C          -8.6918    2.2779    0.3317 C.ar    1  LIG1        0.0660
     28 C         -11.4517    2.1902    0.7306 C.ar    1  LIG1        0.0434
     29 H         -11.5302    1.1130   -1.1290 H       1  LIG1        0.0662
     30 C          -9.2532    2.8626    1.4617 C.ar    1  LIG1       -0.0050
     31 C         -10.6359    2.8230    1.6694 C.ar    1  LIG1        0.1301
     32 H          -8.6095    3.3536    2.1871 H       1  LIG1        0.0662
     33 O          -9.0326    1.0697   -1.7024 O.3     1  LIG1       -0.4944
     34 C          -9.9001    0.0035   -2.0969 C.3     1  LIG1        0.0788
     35 H          -9.5159   -0.4602   -2.9813 H       1  LIG1        0.0660
     36 H          -9.9564   -0.7200   -1.3105 H       1  LIG1        0.0660
     37 H         -10.8770    0.3928   -2.2939 H       1  LIG1        0.0660
     38 O         -11.1552    3.3715    2.7276 O.3     1  LIG1       -0.4944
     39 C         -10.3670    4.4996    3.1160 C.3     1  LIG1        0.0788
     40 H         -10.7948    4.9508    3.9869 H       1  LIG1        0.0660
     41 H          -9.3693    4.1798    3.3336 H       1  LIG1        0.0660
     42 H         -10.3470    5.2125    2.3183 H       1  LIG1        0.0660
     43 C         -12.7387    2.1448    0.9085 C.ar    1  LIG1        0.0504
     44 C         -13.6705    3.1337    0.8647 C.ar    1  LIG1       -0.0334
     45 C         -14.9428    2.5347    1.1352 C.ar    1  LIG1       -0.0326
     46 C         -14.7327    1.2059    1.3307 C.ar    1  LIG1        0.0051
     47 N         -13.3846    0.9630    1.1932 N.ar    1  LIG1       -0.3603
     48 H         -12.9472    0.0751    1.2845 H       1  LIG1        0.1653
     49 H         -15.5711    0.2504    1.6031 H       1  LIG1        0.0809
     50 H         -13.4442    4.3908    0.6230 H       1  LIG1        0.0641
     51 C         -16.0896    3.1456    1.1850 C.3     1  LIG1       -0.0383
     52 H         -16.7978    2.5330    1.7027 H       1  LIG1        0.0278
     53 H         -16.4383    3.3313    0.1905 H       1  LIG1        0.0278
     54 H         -15.9763    4.0751    1.7026 H       1  LIG1        0.0278
@<TRIPOS>BOND
     1    35    34    1
     2    37    34    1
     3    34    33    1
     4    34    36    1
     5    33    25    1
     6    29    26    1
     7    22    21    1
     8    25    26   ar
     9    25    27   ar
    10    21    20    3
    11    14    12    1
    12    13    12    1
    13    11     9    1
    14    10     9    1
    15    26    28   ar
    16    20    16    1
    17    24    23    1
    18    16    17   ar
    19    16    15   ar
    20    23    17    1
    21    17    18   ar
    22     7     3    1
    23    15     5    1
    24    15    19   ar
    25    12     4    1
    26     5     6   ar
    27     5     4   ar
    28     6     1   ar
    29     4     3   ar
    30     1     2   ar
    31     1     9    1
    32     3     2   ar
    33     2     8    1
    34    18    19   ar
    35    18    27    1
    36    53    51    1
    37    27    30   ar
    38    50    44    1
    39    28    43    1
    40    28    31   ar
    41    44    43   ar
    42    44    45   ar
    43    43    47   ar
    44    45    51    1
    45    45    46   ar
    46    51    54    1
    47    51    52    1
    48    47    48    1
    49    47    46   ar
    50    46    49    1
    51    30    31   ar
    52    30    32    1
    53    31    38    1
    54    42    39    1
    55    38    39    1
    56    39    41    1
    57    39    40    1
