@<TRIPOS>MOLECULE
mol_data/noopt/geoms/mol2/6hh13fl-12aa6ai.out
 47 50 0 0 0
SMALL
GASTEIGER

@<TRIPOS>ATOM
      1 C          -4.5775   -2.0270    0.0001 C.ar    1  LIG1        0.1170
      2 C          -3.1706   -2.0270    0.0001 C.ar    1  LIG1       -0.0203
      3 C          -2.5039   -0.8004    0.0001 C.ar    1  LIG1       -0.0357
      4 C          -3.2580    0.3743   -0.0001 C.ar    1  LIG1        0.0526
      5 C          -4.6612    0.2715   -0.0003 C.ar    1  LIG1        0.1134
      6 N          -5.3207   -0.9034   -0.0001 N.ar    1  LIG1       -0.2290
      7 H          -1.4054   -0.7607   -0.0009 H       1  LIG1        0.0638
      8 H          -2.5135   -3.1487    0.0004 H       1  LIG1        0.0652
      9 N          -5.2431   -3.1437    0.0002 N.pl3   1  LIG1       -0.3431
     10 H          -6.1151   -3.0120   -0.4712 H       1  LIG1        0.1437
     11 H          -4.7125   -3.8481   -0.4712 H       1  LIG1        0.1437
     12 N          -2.6846    1.5410   -0.0003 N.pl3   1  LIG1       -0.3563
     13 H          -1.8048    1.4799   -0.4718 H       1  LIG1        0.1424
     14 H          -3.2703    2.2002   -0.4718 H       1  LIG1        0.1424
     15 C          -5.4065    1.3366   -0.0004 C.ar    1  LIG1        0.1131
     16 C          -5.0647    2.6523    0.0158 C.ar    1  LIG1        0.1867
     17 C          -6.2798    3.4100    0.0080 C.ar    1  LIG1        0.1904
     18 C          -7.3107    2.5241   -0.0144 C.ar    1  LIG1        0.1285
     19 N          -6.7805    1.2536   -0.0191 N.ar    1  LIG1       -0.3446
     20 H          -7.3063    0.4102   -0.0343 H       1  LIG1        0.1663
     21 O          -3.8561    3.1306    0.0362 O.3     1  LIG1       -0.5019
     22 H          -3.8912    4.0900    0.0412 H       1  LIG1        0.2924
     23 O          -6.3823    4.7059    0.0196 O.3     1  LIG1       -0.4894
     24 C          -5.0761    5.2879    0.0238 C.3     1  LIG1        0.0791
     25 H          -5.1608    6.3545    0.0332 H       1  LIG1        0.0660
     26 H          -4.5443    4.9647    0.8943 H       1  LIG1        0.0660
     27 H          -4.5456    4.9800   -0.8529 H       1  LIG1        0.0660
     28 C          -8.5950    2.7246   -0.0290 C.ar    1  LIG1        0.1555
     29 C          -9.4176    3.8320   -0.0252 C.ar    1  LIG1       -0.0137
     30 C         -10.7785    3.3380   -0.0501 C.ar    1  LIG1       -0.0152
     31 C         -10.6973    1.9608   -0.0675 C.ar    1  LIG1        0.1372
     32 O          -9.3614    1.5585   -0.0551 O.2     1  LIG1       -0.4532
     33 H          -9.0667    5.0836   -0.0036 H       1  LIG1        0.0656
     34 H         -11.8512    4.0725   -0.0547 H       1  LIG1        0.0656
     35 C         -11.1081   -0.3518   -0.1054 C.ar    1  LIG1        0.0382
     36 C         -11.5533    0.9827   -0.0921 C.ar    1  LIG1        0.0356
     37 C         -12.9278    1.2271   -0.1056 C.ar    1  LIG1       -0.0453
     38 C         -13.8034    0.1403   -0.1319 C.ar    1  LIG1       -0.0317
     39 C         -13.2618   -1.1582   -0.1436 C.ar    1  LIG1        0.0305
     40 N         -11.9386   -1.4122   -0.1307 N.ar    1  LIG1       -0.2623
     41 H         -13.3131    2.2566   -0.0969 H       1  LIG1        0.0628
     42 H         -14.0362   -2.2021   -0.1680 H       1  LIG1        0.0832
     43 H          -9.8382   -0.6300   -0.0936 H       1  LIG1        0.0837
     44 C         -15.0918    0.3152   -0.1454 C.3     1  LIG1       -0.0383
     45 H         -15.5680   -0.5018    0.3552 H       1  LIG1        0.0278
     46 H         -15.4348    0.3617   -1.1580 H       1  LIG1        0.0278
     47 H         -15.3328    1.2296    0.3552 H       1  LIG1        0.0278
@<TRIPOS>BOND
     1    46    44    1
     2    27    24    1
     3    14    12    1
     4    13    12    1
     5    11     9    1
     6    10     9    1
     7    42    39    1
     8    44    38    1
     9    44    47    1
    10    44    45    1
    11    39    38   ar
    12    39    40   ar
    13    38    37   ar
    14    40    35   ar
    15    37    41    1
    16    37    36   ar
    17    35    43    1
    18    35    36   ar
    19    36    31    1
    20    31    32   ar
    21    31    30   ar
    22    32    28   ar
    23    34    30    1
    24    30    29   ar
    25    20    19    1
    26    28    29   ar
    27    28    18    1
    28    29    33    1
    29    19    18   ar
    30    19    15   ar
    31    18    17   ar
    32     7     3    1
    33    15     5    1
    34    15    16   ar
    35    12     4    1
    36     5     6   ar
    37     5     4   ar
    38     6     1   ar
    39     4     3   ar
    40     1     2   ar
    41     1     9    1
    42     3     2   ar
    43     2     8    1
    44    17    16   ar
    45    17    23    1
    46    16    21    1
    47    23    24    1
    48    24    25    1
    49    24    26    1
    50    21    22    1
