@<TRIPOS>MOLECULE
mol_data/noopt/geoms/mol2/6hh12da(230)12aa(220)4ad(130).out
 41 44 0 0 0
SMALL
GASTEIGER

@<TRIPOS>ATOM
      1 C          -4.5775   -2.0270    0.0001 C.ar    1  LIG1        0.1170
      2 C          -3.1706   -2.0270    0.0001 C.ar    1  LIG1       -0.0203
      3 C          -2.5039   -0.8004    0.0001 C.ar    1  LIG1       -0.0356
      4 C          -3.2580    0.3743   -0.0001 C.ar    1  LIG1        0.0541
      5 C          -4.6612    0.2715   -0.0003 C.ar    1  LIG1        0.1299
      6 N          -5.3207   -0.9034   -0.0001 N.ar    1  LIG1       -0.2275
      7 H          -1.4054   -0.7607   -0.0009 H       1  LIG1        0.0638
      8 H          -2.5135   -3.1487    0.0004 H       1  LIG1        0.0652
      9 N          -5.2431   -3.1437    0.0002 N.pl3   1  LIG1       -0.3431
     10 H          -6.1151   -3.0120   -0.4712 H       1  LIG1        0.1437
     11 H          -4.7125   -3.8481   -0.4712 H       1  LIG1        0.1437
     12 N          -2.6846    1.5410   -0.0003 N.pl3   1  LIG1       -0.3562
     13 H          -1.8048    1.4799   -0.4718 H       1  LIG1        0.1424
     14 H          -3.2703    2.2002   -0.4718 H       1  LIG1        0.1424
     15 C          -5.4065    1.3366   -0.0004 C.ar    1  LIG1        0.1731
     16 C          -6.5186    1.7586   -0.6991 C.ar    1  LIG1        0.0997
     17 C          -6.8503    3.0750   -0.1951 C.ar    1  LIG1        0.0054
     18 C          -5.9186    3.3701    0.7787 C.ar    1  LIG1        0.1719
     19 O          -5.0177    2.3137    0.9172 O.2     1  LIG1       -0.4488
     20 N          -7.7294    0.5579   -2.4536 N.1     1  LIG1       -0.1907
     21 C          -7.1620    1.1206   -1.6314 C.1     1  LIG1        0.1030
     22 H          -7.8404    3.8139   -0.5998 H       1  LIG1        0.0670
     23 C          -5.6945    4.3754    1.5720 C.ar    1  LIG1        0.1706
     24 C          -6.2098    5.6467    1.7181 C.ar    1  LIG1       -0.0122
     25 C          -5.4970    6.2591    2.8198 C.ar    1  LIG1       -0.0151
     26 C          -4.5931    5.3210    3.2741 C.ar    1  LIG1        0.1359
     27 O          -4.6958    4.1511    2.5206 O.2     1  LIG1       -0.4517
     28 H          -7.1500    6.2094    1.0185 H       1  LIG1        0.0657
     29 H          -5.6914    7.4621    3.2727 H       1  LIG1        0.0656
     30 C          -3.8493    6.0730    5.3682 C.ar    1  LIG1       -0.0510
     31 C          -2.8490    5.9923    6.3562 C.ar    1  LIG1       -0.0599
     32 C          -3.6957    5.2785    4.2136 C.ar    1  LIG1        0.0185
     33 C          -1.7442    5.1576    6.2039 C.ar    1  LIG1       -0.0443
     34 H          -2.9477    6.5970    7.2550 H       1  LIG1        0.0618
     35 C          -2.5929    4.4450    4.0611 C.ar    1  LIG1       -0.0337
     36 C          -1.6100    4.3784    5.0541 C.ar    1  LIG1        0.0524
     37 H          -2.4971    3.8422    3.1616 H       1  LIG1        0.0637
     38 H          -0.8396    5.1076    7.1362 H       1  LIG1        0.0630
     39 H          -4.8569    6.8699    5.5672 H       1  LIG1        0.0625
     40 N           0.3261    2.9089    4.7752 N.1     1  LIG1       -0.1909
     41 C          -0.5813    3.5976    4.9059 C.1     1  LIG1        0.0992
@<TRIPOS>BOND
     1    20    21    3
     2    21    16    1
     3    16    17   ar
     4    16    15   ar
     5    22    17    1
     6    14    12    1
     7    13    12    1
     8    11     9    1
     9    10     9    1
    10    17    18   ar
    11     7     3    1
    12    15     5    1
    13    15    19   ar
    14     5     4   ar
    15     5     6   ar
    16    12     4    1
    17     4     3   ar
    18     6     1   ar
    19     1     2   ar
    20     1     9    1
    21     3     2   ar
    22     2     8    1
    23    18    19   ar
    24    18    23    1
    25    28    24    1
    26    23    24   ar
    27    23    27   ar
    28    24    25   ar
    29    27    26   ar
    30    25    29    1
    31    25    26   ar
    32    37    35    1
    33    26    32    1
    34    35    32   ar
    35    35    36   ar
    36    32    30   ar
    37    40    41    3
    38    41    36    1
    39    36    33   ar
    40    30    39    1
    41    30    31   ar
    42    33    31   ar
    43    33    38    1
    44    31    34    1
