@<TRIPOS>MOLECULE
mol_data/noopt/geoms/mol2/6hh13fe(90)12ea(180)4di(20).out
 49 52 0 0 0
SMALL
GASTEIGER

@<TRIPOS>ATOM
      1 C          -4.5775   -2.0270    0.0001 C.ar    1  LIG1        0.1170
      2 C          -3.1706   -2.0270    0.0001 C.ar    1  LIG1       -0.0203
      3 C          -2.5039   -0.8004    0.0001 C.ar    1  LIG1       -0.0357
      4 C          -3.2580    0.3743   -0.0001 C.ar    1  LIG1        0.0526
      5 C          -4.6612    0.2715   -0.0003 C.ar    1  LIG1        0.1133
      6 N          -5.3207   -0.9034   -0.0001 N.ar    1  LIG1       -0.2290
      7 H          -1.4054   -0.7607   -0.0009 H       1  LIG1        0.0638
      8 H          -2.5135   -3.1487    0.0004 H       1  LIG1        0.0652
      9 N          -5.2431   -3.1437    0.0002 N.pl3   1  LIG1       -0.3431
     10 H          -6.1151   -3.0120   -0.4712 H       1  LIG1        0.1437
     11 H          -4.7125   -3.8481   -0.4712 H       1  LIG1        0.1437
     12 N          -2.6846    1.5410   -0.0003 N.pl3   1  LIG1       -0.3563
     13 H          -1.8048    1.4799   -0.4718 H       1  LIG1        0.1424
     14 H          -3.2703    2.2002   -0.4718 H       1  LIG1        0.1424
     15 C          -5.4065    1.3366   -0.0004 C.ar    1  LIG1        0.1106
     16 C          -5.9118    2.0596    1.0340 C.ar    1  LIG1        0.1597
     17 C          -6.6682    3.1382    0.4727 C.ar    1  LIG1        0.0950
     18 C          -6.5905    3.0279   -0.8800 C.ar    1  LIG1        0.1030
     19 N          -5.8194    1.9260   -1.1740 N.ar    1  LIG1       -0.3466
     20 H          -5.5957    1.6070   -2.0884 H       1  LIG1        0.1662
     21 O          -5.7392    1.8132    2.2987 O.3     1  LIG1       -0.5034
     22 H          -4.9554    2.2715    2.6104 H       1  LIG1        0.2923
     23 C          -7.3115    4.0557    1.1317 C.1     1  LIG1       -0.0637
     24 C          -7.9059    4.9035    1.7407 C.1     1  LIG1       -0.1137
     25 H          -8.4354    5.6587    2.2831 H       1  LIG1        0.1232
     26 C          -7.1074    3.7654   -1.8176 C.ar    1  LIG1        0.1684
     27 C          -8.2906    3.7679   -2.5268 C.ar    1  LIG1        0.0725
     28 C          -8.2234    4.8883   -3.4417 C.ar    1  LIG1        0.0003
     29 C          -7.0030    5.4964   -3.2308 C.ar    1  LIG1        0.1382
     30 O          -6.2967    4.8223   -2.2340 O.2     1  LIG1       -0.4520
     31 C          -9.2865    2.9397   -2.4159 C.1     1  LIG1       -0.0658
     32 C         -10.2067    2.1745   -2.3135 C.1     1  LIG1       -0.1138
     33 H         -11.0264    1.4928   -2.2222 H       1  LIG1        0.1232
     34 H          -9.1486    5.2322   -4.2877 H       1  LIG1        0.0668
     35 C          -4.9779    6.6162   -3.6166 C.ar    1  LIG1        0.0624
     36 C          -4.3501    7.7465   -4.1749 C.ar    1  LIG1       -0.0434
     37 C          -6.3798    6.5211   -3.7321 C.ar    1  LIG1        0.0349
     38 C          -5.0838    8.7392   -4.8207 C.ar    1  LIG1       -0.0576
     39 H          -3.2692    7.8398   -4.0969 H       1  LIG1        0.0631
     40 C          -7.1127    7.5119   -4.3767 C.ar    1  LIG1       -0.0469
     41 C          -6.4707    8.6270   -4.9252 C.ar    1  LIG1       -0.0497
     42 H          -8.1928    7.4157   -4.4527 H       1  LIG1        0.0628
     43 H          -4.4717    9.7693   -5.3248 H       1  LIG1        0.0621
     44 N          -3.5893    4.9355   -2.5062 N.1     1  LIG1       -0.1908
     45 C          -4.2401    5.7232   -3.0266 C.1     1  LIG1        0.0999
     46 C          -7.1612    9.5503   -5.5266 C.3     1  LIG1       -0.0397
     47 H          -8.1900    9.4671   -5.2443 H       1  LIG1        0.0278
     48 H          -7.0712    9.4298   -6.5860 H       1  LIG1        0.0278
     49 H          -6.7906   10.5135   -5.2444 H       1  LIG1        0.0278
@<TRIPOS>BOND
     1    48    46    1
     2    46    49    1
     3    46    47    1
     4    46    41    1
     5    43    38    1
     6    41    38   ar
     7    41    40   ar
     8    38    36   ar
     9    42    40    1
    10    40    37   ar
    11    34    28    1
    12    36    39    1
    13    36    35   ar
    14    37    35   ar
    15    37    29    1
    16    35    45    1
    17    28    29   ar
    18    28    27   ar
    19    29    30   ar
    20    45    44    3
    21    27    31    1
    22    27    26   ar
    23    31    32    3
    24    32    33    1
    25    30    26   ar
    26    20    19    1
    27    26    18    1
    28    19    18   ar
    29    19    15   ar
    30    18    17   ar
    31    14    12    1
    32    13    12    1
    33    11     9    1
    34    10     9    1
    35     7     3    1
    36    15     5    1
    37    15    16   ar
    38    12     4    1
    39     5     6   ar
    40     5     4   ar
    41     6     1   ar
    42     4     3   ar
    43     1     2   ar
    44     1     9    1
    45     3     2   ar
    46     2     8    1
    47    17    16   ar
    48    17    23    1
    49    16    21    1
    50    23    24    3
    51    24    25    1
    52    21    22    1
