@<TRIPOS>MOLECULE
mol_data/noopt/geoms/mol2/6hh4al(300)6ee(330)4fa(240).out
 53 56 0 0 0
SMALL
GASTEIGER

@<TRIPOS>ATOM
      1 C          -4.5775   -2.0270    0.0001 C.ar    1  LIG1        0.1169
      2 C          -3.1706   -2.0270    0.0001 C.ar    1  LIG1       -0.0203
      3 C          -2.5039   -0.8004    0.0001 C.ar    1  LIG1       -0.0357
      4 C          -3.2580    0.3743   -0.0001 C.ar    1  LIG1        0.0510
      5 C          -4.6612    0.2715   -0.0003 C.ar    1  LIG1        0.0937
      6 N          -5.3207   -0.9034   -0.0001 N.ar    1  LIG1       -0.2306
      7 H          -1.4054   -0.7607   -0.0009 H       1  LIG1        0.0638
      8 H          -2.5135   -3.1487    0.0004 H       1  LIG1        0.0652
      9 N          -5.2431   -3.1437    0.0002 N.pl3   1  LIG1       -0.3431
     10 H          -6.1151   -3.0120   -0.4712 H       1  LIG1        0.1437
     11 H          -4.7125   -3.8481   -0.4712 H       1  LIG1        0.1437
     12 N          -2.6846    1.5410   -0.0003 N.pl3   1  LIG1       -0.3563
     13 H          -1.8048    1.4799   -0.4718 H       1  LIG1        0.1424
     14 H          -3.2703    2.2002   -0.4718 H       1  LIG1        0.1424
     15 C          -5.3078    2.2629   -1.0587 C.ar    1  LIG1       -0.0517
     16 C          -6.1356    3.4013   -1.0116 C.ar    1  LIG1       -0.0498
     17 C          -5.4065    1.3366   -0.0004 C.ar    1  LIG1        0.0057
     18 C          -7.0234    3.6099    0.0413 C.ar    1  LIG1        0.0265
     19 H          -6.0754    4.1289   -1.8180 H       1  LIG1        0.0625
     20 C          -6.2927    1.5444    1.0511 C.ar    1  LIG1       -0.0101
     21 C          -7.1069    2.6814    1.0796 C.ar    1  LIG1        0.1285
     22 H          -6.3502    0.8155    1.8554 H       1  LIG1        0.0661
     23 H          -4.4997    2.1231   -2.0673 H       1  LIG1        0.0624
     24 O          -7.9334    2.8704    2.0652 O.3     1  LIG1       -0.4945
     25 C          -7.9363    4.2539    2.4270 C.3     1  LIG1        0.0788
     26 H          -8.6167    4.4090    3.2381 H       1  LIG1        0.0660
     27 H          -6.9516    4.5463    2.7267 H       1  LIG1        0.0660
     28 H          -8.2427    4.8416    1.5870 H       1  LIG1        0.0660
     29 C          -9.0390    4.6424    0.6658 C.ar    1  LIG1        0.1217
     30 C          -7.7729    4.6720    0.0528 C.ar    1  LIG1        0.0206
     31 C          -7.3459    5.8627   -0.5379 C.ar    1  LIG1       -0.0338
     32 C          -8.1901    6.9737   -0.4970 C.ar    1  LIG1        0.0514
     33 C          -9.4384    6.8454    0.1393 C.ar    1  LIG1        0.0912
     34 N          -9.8662    5.7045    0.7144 N.ar    1  LIG1       -0.2365
     35 H          -6.3634    5.9237   -1.0270 H       1  LIG1        0.0637
     36 C          -9.4805    3.5572    1.2291 C.1     1  LIG1       -0.0492
     37 C          -9.8884    2.5545    1.7497 C.1     1  LIG1       -0.1124
     38 H         -10.2518    1.6612    2.2134 H       1  LIG1        0.1232
     39 C          -7.8387    8.1049   -1.0326 C.1     1  LIG1       -0.0675
     40 C          -7.5140    9.1501   -1.5274 C.1     1  LIG1       -0.1138
     41 H          -7.2247   10.0812   -1.9682 H       1  LIG1        0.1232
     42 C         -11.2088    8.0494   -0.8200 C.ar    1  LIG1        0.1260
     43 C         -12.0742    9.1545   -0.7052 C.ar    1  LIG1       -0.0195
     44 C         -10.2592    7.8514    0.2032 C.ar    1  LIG1        0.0430
     45 C         -11.9996   10.0249    0.3799 C.ar    1  LIG1       -0.0583
     46 H         -12.8143    9.3259   -1.4836 H       1  LIG1        0.0654
     47 C         -10.1844    8.7201    1.2867 C.ar    1  LIG1       -0.0490
     48 C         -11.0532    9.8121    1.3829 C.ar    1  LIG1       -0.0609
     49 H          -9.4434    8.5462    2.0628 H       1  LIG1        0.0625
     50 H         -12.8144   11.0352    0.4541 H       1  LIG1        0.0619
     51 O         -11.3267    7.2723   -1.8555 O.3     1  LIG1       -0.5061
     52 H         -10.4610    6.9450   -2.1108 H       1  LIG1        0.2922
     53 H         -10.9784   10.6209    2.3980 H       1  LIG1        0.0618
@<TRIPOS>BOND
     1    52    51    1
     2    23    15    1
     3    41    40    1
     4    51    42    1
     5    19    16    1
     6    40    39    3
     7    46    43    1
     8    15    16   ar
     9    15    17   ar
    10    39    32    1
    11    35    31    1
    12    16    18   ar
    13    42    43   ar
    14    42    44   ar
    15    43    45   ar
    16    31    32   ar
    17    31    30   ar
    18    32    33   ar
    19    14    12    1
    20    13    12    1
    21    11     9    1
    22    10     9    1
    23     7     3    1
    24    17     5    1
    25    17    20   ar
    26    12     4    1
    27     5     6   ar
    28     5     4   ar
    29     6     1   ar
    30     4     3   ar
    31     1     2   ar
    32     1     9    1
    33     3     2   ar
    34     2     8    1
    35    18    30    1
    36    18    21   ar
    37    30    29   ar
    38    33    44    1
    39    33    34   ar
    40    44    47   ar
    41    45    50    1
    42    45    48   ar
    43    29    34   ar
    44    29    36    1
    45    20    21   ar
    46    20    22    1
    47    21    24    1
    48    36    37    3
    49    47    48   ar
    50    47    49    1
    51    48    53    1
    52    28    25    1
    53    37    38    1
    54    24    25    1
    55    25    27    1
    56    25    26    1
