@<TRIPOS>MOLECULE
mol_data/noopt/geoms/mol2/6hh4de(240)4fl(10)4di(210).out
 57 59 0 0 0
SMALL
GASTEIGER

@<TRIPOS>ATOM
      1 C          -4.5775   -2.0270    0.0001 C.ar    1  LIG1        0.1169
      2 C          -3.1706   -2.0270    0.0001 C.ar    1  LIG1       -0.0203
      3 C          -2.5039   -0.8004    0.0001 C.ar    1  LIG1       -0.0357
      4 C          -3.2580    0.3743   -0.0001 C.ar    1  LIG1        0.0511
      5 C          -4.6612    0.2715   -0.0003 C.ar    1  LIG1        0.0949
      6 N          -5.3207   -0.9034   -0.0001 N.ar    1  LIG1       -0.2306
      7 H          -1.4054   -0.7607   -0.0009 H       1  LIG1        0.0638
      8 H          -2.5135   -3.1487    0.0004 H       1  LIG1        0.0652
      9 N          -5.2431   -3.1437    0.0002 N.pl3   1  LIG1       -0.3431
     10 H          -6.1151   -3.0120   -0.4712 H       1  LIG1        0.1437
     11 H          -4.7125   -3.8481   -0.4712 H       1  LIG1        0.1437
     12 N          -2.6846    1.5410   -0.0003 N.pl3   1  LIG1       -0.3563
     13 H          -1.8048    1.4799   -0.4718 H       1  LIG1        0.1424
     14 H          -3.2703    2.2002   -0.4718 H       1  LIG1        0.1424
     15 C          -6.3095    1.5620   -1.0595 C.ar    1  LIG1        0.0616
     16 C          -7.0932    2.7311   -1.0139 C.ar    1  LIG1       -0.0347
     17 C          -5.4065    1.3366   -0.0004 C.ar    1  LIG1        0.0207
     18 C          -6.9849    3.6369    0.0389 C.ar    1  LIG1        0.0023
     19 H          -7.7963    2.9246   -1.8210 H       1  LIG1        0.0637
     20 C          -5.2979    2.2405    1.0509 C.ar    1  LIG1       -0.0353
     21 C          -6.0855    3.3961    1.0784 C.ar    1  LIG1        0.0332
     22 H          -4.5941    2.0443    1.8558 H       1  LIG1        0.0637
     23 N          -6.5842    0.0423   -2.9571 N.1     1  LIG1       -0.1908
     24 C          -6.4555    0.7545   -2.0678 C.1     1  LIG1        0.0998
     25 C          -5.9796    4.2375    2.0636 C.1     1  LIG1       -0.0690
     26 C          -5.8817    5.0150    2.9740 C.1     1  LIG1       -0.1139
     27 H          -5.7945    5.7076    3.7849 H       1  LIG1        0.1232
     28 C          -7.1323    5.9671    0.2676 C.ar    1  LIG1        0.1254
     29 C          -7.9762    7.0946    0.2708 C.ar    1  LIG1       -0.0082
     30 C          -7.7240    4.7062    0.0491 C.ar    1  LIG1        0.0284
     31 C          -9.3487    6.9743    0.0651 C.ar    1  LIG1        0.0323
     32 H          -7.5404    8.0771    0.4377 H       1  LIG1        0.0661
     33 C          -9.0942    4.5856   -0.1563 C.ar    1  LIG1       -0.0031
     34 C          -9.9158    5.7176   -0.1499 C.ar    1  LIG1        0.1874
     35 H          -9.5266    3.6022   -0.3225 H       1  LIG1        0.0663
     36 O          -5.8594    6.1427    0.4650 O.3     1  LIG1       -0.5061
     37 H          -5.6693    7.0824    0.5136 H       1  LIG1        0.2922
     38 O         -11.1960    5.5986   -0.3423 O.3     1  LIG1       -0.2872
     39 C         -11.7907    6.8972   -0.4130 C.3     1  LIG1        0.0105
     40 H         -12.8443    6.7989   -0.5715 H       1  LIG1        0.0462
     41 H         -11.6153    7.4203    0.5039 H       1  LIG1        0.0624
     42 H         -11.3575    7.4442   -1.2241 H       1  LIG1        0.0462
     43 C         -11.3705    8.0036   -0.5324 C.ar    1  LIG1       -0.0539
     44 C         -12.1432    9.1804   -0.4969 C.ar    1  LIG1       -0.0609
     45 C         -10.0983    8.0364    0.0744 C.ar    1  LIG1       -0.0139
     46 C         -11.6724   10.3396    0.1157 C.ar    1  LIG1       -0.0588
     47 H         -13.1278    9.1771   -0.9593 H       1  LIG1        0.0618
     48 C          -9.6277    9.1933    0.6861 C.ar    1  LIG1       -0.0510
     49 C         -10.4105   10.3522    0.7113 C.ar    1  LIG1       -0.0499
     50 H          -8.6433    9.1934    1.1470 H       1  LIG1        0.0626
     51 H         -12.4124   11.4083    0.1301 H       1  LIG1        0.0620
     52 N         -12.2990    6.0269   -1.6354 N.3     1  LIG1       -0.1428
     53 C         -11.8638    6.9533   -1.1185 C.3     1  LIG1        0.0399
     54 C          -9.9652   11.4310    1.2846 C.3     1  LIG1       -0.0397
     55 H         -10.7355   11.8547    1.8946 H       1  LIG1        0.0278
     56 H          -9.6735   12.1381    0.5364 H       1  LIG1        0.0278
     57 H          -9.1204   11.1881    1.8946 H       1  LIG1        0.0278
@<TRIPOS>BOND
     1    23    24    3
     2    24    15    1
     3    19    16    1
     4    52    53    1
     5    42    53    1
     6    53    40    1
     7    53    39    1
     8    15    16   ar
     9    15    17   ar
    10    16    18   ar
    11    47    44    1
    12    43    44   ar
    13    43    45   ar
    14    43    41    1
    15    44    46   ar
    16    14    12    1
    17    13    12    1
    18    11     9    1
    19    10     9    1
    20    38    34    1
    21    35    33    1
    22    33    34   ar
    23    33    30   ar
    24    34    31   ar
    25     7     3    1
    26    17     5    1
    27    17    20   ar
    28     5     4   ar
    29     5     6   ar
    30    12     4    1
    31     4     3   ar
    32     6     1   ar
    33     2     1   ar
    34     2     3   ar
    35     2     8    1
    36     1     9    1
    37    18    30    1
    38    18    21   ar
    39    30    28   ar
    40    31    45    1
    41    31    29   ar
    42    45    48   ar
    43    46    51    1
    44    46    49   ar
    45    28    29   ar
    46    28    36    1
    47    29    32    1
    48    36    37    1
    49    56    54    1
    50    48    49   ar
    51    48    50    1
    52    49    54    1
    53    20    21   ar
    54    20    22    1
    55    21    25    1
    56    54    57    1
    57    54    55    1
    58    25    26    3
    59    26    27    1
