@<TRIPOS>MOLECULE
mol_data/noopt/geoms/mol2/6hh6hh6hh.out
 41 43 0 0 0
SMALL
GASTEIGER

@<TRIPOS>ATOM
      1 C          -4.5775   -2.0270    0.0001 C.ar    1  LIG1        0.1169
      2 C          -3.1706   -2.0270    0.0001 C.ar    1  LIG1       -0.0203
      3 C          -2.5039   -0.8004    0.0001 C.ar    1  LIG1       -0.0357
      4 C          -3.2580    0.3743   -0.0001 C.ar    1  LIG1        0.0511
      5 C          -4.6612    0.2715   -0.0003 C.ar    1  LIG1        0.0970
      6 N          -5.3207   -0.9034   -0.0001 N.ar    1  LIG1       -0.2305
      7 H          -1.4054   -0.7607   -0.0009 H       1  LIG1        0.0638
      8 H          -2.5135   -3.1487    0.0004 H       1  LIG1        0.0652
      9 N          -5.2431   -3.1437    0.0002 N.pl3   1  LIG1       -0.3431
     10 H          -6.1151   -3.0120   -0.4712 H       1  LIG1        0.1437
     11 H          -4.7125   -3.8481   -0.4712 H       1  LIG1        0.1437
     12 N          -2.6846    1.5410   -0.0003 N.pl3   1  LIG1       -0.3563
     13 H          -1.8048    1.4799   -0.4718 H       1  LIG1        0.1424
     14 H          -3.2703    2.2002   -0.4718 H       1  LIG1        0.1424
     15 C          -6.8088    1.2233   -0.0003 C.ar    1  LIG1        0.1263
     16 C          -5.4065    1.3366   -0.0004 C.ar    1  LIG1        0.0435
     17 C          -4.8408    2.6129   -0.0003 C.ar    1  LIG1       -0.0264
     18 C          -5.6871    3.7231   -0.0003 C.ar    1  LIG1        0.0518
     19 C          -7.0774    3.5076   -0.0004 C.ar    1  LIG1        0.0970
     20 N          -7.6401    2.2834   -0.0003 N.ar    1  LIG1       -0.2298
     21 H          -3.7491    2.7410   -0.0014 H       1  LIG1        0.0644
     22 N          -7.3823    0.0566   -0.0003 N.pl3   1  LIG1       -0.3426
     23 H          -8.2621    0.1177   -0.4717 H       1  LIG1        0.1437
     24 H          -6.7967   -0.6027   -0.4717 H       1  LIG1        0.1437
     25 N          -5.2095    4.9322   -0.0004 N.pl3   1  LIG1       -0.3563
     26 H          -4.3276    4.9422   -0.4718 H       1  LIG1        0.1424
     27 H          -5.8464    5.5421   -0.4718 H       1  LIG1        0.1424
     28 C          -9.2948    4.2833   -0.0001 C.ar    1  LIG1        0.1255
     29 C          -7.9061    4.5092   -0.0003 C.ar    1  LIG1        0.0434
     30 C          -7.4450    5.8270   -0.0001 C.ar    1  LIG1       -0.0270
     31 C          -8.3780    6.8653    0.0002 C.ar    1  LIG1        0.0437
     32 C          -9.7465    6.5385    0.0002 C.ar    1  LIG1        0.0503
     33 N         -10.2087    5.2730    0.0002 N.ar    1  LIG1       -0.2382
     34 H          -6.3672    6.0425   -0.0012 H       1  LIG1        0.0644
     35 H         -10.6531    7.4701    0.0005 H       1  LIG1        0.0849
     36 N          -9.7724    3.0742   -0.0002 N.pl3   1  LIG1       -0.3426
     37 H         -10.6542    3.0642   -0.4716 H       1  LIG1        0.1437
     38 H          -9.1355    2.4643   -0.4716 H       1  LIG1        0.1437
     39 N          -7.9993    8.1090    0.0002 N.pl3   1  LIG1       -0.3568
     40 H          -7.1212    8.1900   -0.4712 H       1  LIG1        0.1424
     41 H          -8.6833    8.6657   -0.4712 H       1  LIG1        0.1424
@<TRIPOS>BOND
     1    27    25    1
     2    26    25    1
     3    14    12    1
     4    13    12    1
     5    24    22    1
     6    23    22    1
     7    38    36    1
     8    37    36    1
     9    41    39    1
    10    11     9    1
    11    40    39    1
    12    10     9    1
    13    21    17    1
    14    34    30    1
    15     7     3    1
    16    16     5    1
    17    16    15   ar
    18    16    17   ar
    19    19    20   ar
    20    19    29    1
    21    19    18   ar
    22    25    18    1
    23    12     4    1
    24     5     4   ar
    25     5     6   ar
    26    15    22    1
    27    15    20   ar
    28    17    18   ar
    29    29    28   ar
    30    29    30   ar
    31    36    28    1
    32     4     3   ar
    33     6     1   ar
    34    28    33   ar
    35    30    31   ar
    36     1     2   ar
    37     1     9    1
    38     3     2   ar
    39     2     8    1
    40    33    32   ar
    41    32    31   ar
    42    32    35    1
    43    31    39    1
