@<TRIPOS>MOLECULE
mol_data/noopt/geoms/mol2/6hh6hf-13df4fd-13hi-4ha-4ef-.out
 87 92 0 0 0
SMALL
GASTEIGER

@<TRIPOS>ATOM
      1 C          -4.5775   -2.0270    0.0001 C.ar    1  LIG1        0.1169
      2 C          -3.1706   -2.0270    0.0001 C.ar    1  LIG1       -0.0203
      3 C          -2.5039   -0.8004    0.0001 C.ar    1  LIG1       -0.0357
      4 C          -3.2580    0.3743   -0.0001 C.ar    1  LIG1        0.0511
      5 C          -4.6612    0.2715   -0.0003 C.ar    1  LIG1        0.0970
      6 N          -5.3207   -0.9034   -0.0001 N.ar    1  LIG1       -0.2305
      7 H          -1.4054   -0.7607   -0.0009 H       1  LIG1        0.0638
      8 H          -2.5135   -3.1487    0.0004 H       1  LIG1        0.0652
      9 N          -5.2431   -3.1437    0.0002 N.pl3   1  LIG1       -0.3431
     10 H          -6.1151   -3.0120   -0.4712 H       1  LIG1        0.1437
     11 H          -4.7125   -3.8481   -0.4712 H       1  LIG1        0.1437
     12 N          -2.6846    1.5410   -0.0003 N.pl3   1  LIG1       -0.3563
     13 H          -1.8048    1.4799   -0.4718 H       1  LIG1        0.1424
     14 H          -3.2703    2.2002   -0.4718 H       1  LIG1        0.1424
     15 C          -6.8087    1.2234   -0.0215 C.ar    1  LIG1        0.1264
     16 C          -5.4065    1.3366   -0.0004 C.ar    1  LIG1        0.0452
     17 C          -4.8409    2.6128    0.0206 C.ar    1  LIG1       -0.0055
     18 C          -5.6872    3.7230    0.0196 C.ar    1  LIG1        0.1449
     19 C          -7.0774    3.5076   -0.0025 C.ar    1  LIG1        0.1318
     20 N          -7.6400    2.2835   -0.0227 N.ar    1  LIG1       -0.2266
     21 H          -3.7493    2.7408    0.0363 H       1  LIG1        0.0662
     22 N          -7.3820    0.0568   -0.0413 N.pl3   1  LIG1       -0.3426
     23 H          -8.2587    0.1243   -0.5178 H       1  LIG1        0.1437
     24 H          -6.7931   -0.5960   -0.5178 H       1  LIG1        0.1437
     25 O          -5.2098    4.9320    0.0384 O.3     1  LIG1       -0.5045
     26 H          -5.9338    5.5624    0.0430 H       1  LIG1        0.2922
     27 C          -7.9061    4.5092   -0.0043 C.ar    1  LIG1        0.0903
     28 C          -7.6712    5.8482   -0.0058 C.ar    1  LIG1        0.1205
     29 C          -8.9435    6.5055   -0.0062 C.ar    1  LIG1        0.1602
     30 C          -9.8998    5.5394   -0.0067 C.ar    1  LIG1        0.0938
     31 N          -9.2691    4.3157   -0.0051 N.ar    1  LIG1       -0.3488
     32 H          -9.7253    3.4326   -0.0051 H       1  LIG1        0.1661
     33 N          -5.4763    6.9290   -0.0049 N.1     1  LIG1       -0.1907
     34 C          -6.5050    6.4225   -0.0053 C.1     1  LIG1        0.1050
     35 O          -9.1499    7.7891   -0.0066 O.3     1  LIG1       -0.5034
     36 H         -10.0942    7.9617   -0.0067 H       1  LIG1        0.2923
     37 C         -11.8061    6.9066    0.0144 C.ar    1  LIG1        0.1268
     38 C         -13.2135    6.9574    0.0142 C.ar    1  LIG1       -0.0091
     39 C         -11.1962    5.6357   -0.0074 C.ar    1  LIG1        0.0446
     40 C         -13.9816    5.7955   -0.0072 C.ar    1  LIG1        0.0210
     41 H         -13.7046    7.9278    0.0310 H       1  LIG1        0.0661
     42 C         -11.9625    4.4754   -0.0288 C.ar    1  LIG1       -0.0310
     43 C         -13.3594    4.5466   -0.0289 C.ar    1  LIG1        0.0618
     44 H         -11.4686    3.5072   -0.0452 H       1  LIG1        0.0638
     45 O         -11.1436    8.0250    0.0347 O.3     1  LIG1       -0.5061
     46 H         -11.7589    8.7619    0.0397 H       1  LIG1        0.2922
     47 N         -14.6979    2.4989   -0.0664 N.1     1  LIG1       -0.1908
     48 C         -14.0706    3.4586   -0.0488 C.1     1  LIG1        0.0998
     49 C         -15.2789    5.8792   -0.0068 C.ar    1  LIG1        0.0698
     50 C         -16.0924    6.9683   -0.0068 C.ar    1  LIG1        0.0588
     51 C         -17.4433    6.4931   -0.0051 C.ar    1  LIG1        0.0325
     52 C         -17.3959    5.1345   -0.0058 C.ar    1  LIG1        0.0584
     53 N         -16.0727    4.7545   -0.0063 N.ar    1  LIG1       -0.3521
     54 H         -15.7429    3.8168   -0.0070 H       1  LIG1        0.1660
     55 N         -15.7106    8.2110   -0.0068 N.pl3   1  LIG1       -0.3558
     56 H         -14.8322    8.2898   -0.4783 H       1  LIG1        0.1424
     57 H         -16.3931    8.7694   -0.4783 H       1  LIG1        0.1424
     58 C         -18.5193    7.2232   -0.0036 C.3     2  LIG2       -0.0681
     59 H         -19.3045    6.7003    0.5013 H       1  LIG1        0.0227
     60 H         -18.8154    7.4241   -1.0120 H       1  LIG1        0.0227
     61 H         -18.3233    8.1461    0.5012 H       1  LIG1        0.0227
     62 C         -19.6983    4.6847    0.0176 C.ar    1  LIG1        0.0344
     63 C         -20.7004    3.6952    0.0191 C.ar    1  LIG1       -0.0326
     64 C         -18.3550    4.2570   -0.0049 C.ar    1  LIG1        0.0196
     65 C         -20.3814    2.3393   -0.0015 C.ar    1  LIG1       -0.0148
     66 H         -21.7434    4.0032    0.0365 H       1  LIG1        0.0642
     67 C         -18.0360    2.9036   -0.0255 C.ar    1  LIG1       -0.0503
     68 C         -19.0458    1.9357   -0.0241 C.ar    1  LIG1       -0.0533
     69 H         -16.9926    2.5991   -0.0426 H       1  LIG1        0.0625
     70 N         -20.0579    5.9338    0.0372 N.pl3   1  LIG1       -0.3574
     71 H         -19.3675    6.4868   -0.4291 H       1  LIG1        0.1423
     72 H         -20.9367    6.0350   -0.4291 H       1  LIG1        0.1423
     73 H         -18.7416    0.6719   -0.0433 H       1  LIG1        0.0624
     74 C         -22.6793    1.8671    0.0235 C.ar    1  LIG1        0.0326
     75 C         -23.6717    0.8679    0.0262 C.ar    1  LIG1       -0.0423
     76 C         -21.3319    1.4525    0.0004 C.ar    1  LIG1        0.0010
     77 C         -23.3396   -0.4849    0.0061 C.ar    1  LIG1       -0.0190
     78 H         -24.7177    1.1657    0.0441 H       1  LIG1        0.0631
     79 C         -20.9998    0.1022   -0.0197 C.ar    1  LIG1       -0.0113
     80 C         -22.0002   -0.8755   -0.0171 C.ar    1  LIG1        0.1175
     81 H         -19.9535   -0.1922   -0.0372 H       1  LIG1        0.0660
     82 H         -24.2815   -1.3809    0.0091 H       1  LIG1        0.0654
     83 C         -23.0510    3.1126    0.0427 C.1     1  LIG1       -0.0690
     84 C         -23.3945    4.2635    0.0604 C.1     1  LIG1       -0.1139
     85 H         -23.7005    5.2887    0.0761 H       1  LIG1        0.1232
     86 O         -21.6837   -2.1363   -0.0357 O.3     1  LIG1       -0.5067
     87 H         -20.7280   -2.2267   -0.0403 H       1  LIG1        0.2921
@<TRIPOS>BOND
     1    60    58    1
     2    24    22    1
     3    23    22    1
     4    57    55    1
     5    56    55    1
     6    14    12    1
     7    13    12    1
     8    11     9    1
     9    10     9    1
    10    72    70    1
    11    71    70    1
    12    47    48    3
    13    48    43    1
    14    44    42    1
    15    73    68    1
    16    69    67    1
    17    22    15    1
    18    87    86    1
    19    81    79    1
    20    86    80    1
    21    43    42   ar
    22    43    40   ar
    23    42    39   ar
    24    67    68   ar
    25    67    64   ar
    26    68    65   ar
    27    20    15   ar
    28    20    19   ar
    29    15    16   ar
    30    79    80   ar
    31    79    76   ar
    32    80    77   ar
    33    39    30    1
    34    39    37   ar
    35    40    49    1
    36    40    38   ar
    37    54    53    1
    38    55    50    1
    39    50    49   ar
    40    50    51   ar
    41    49    53   ar
    42    30    29   ar
    43    30    31   ar
    44    36    35    1
    45    35    29    1
    46    53    52   ar
    47    29    28   ar
    48    28    34    1
    49    28    27   ar
    50    52    51   ar
    51    52    64    1
    52    34    33    3
    53    32    31    1
    54    31    27   ar
    55    64    62   ar
    56    27    19    1
    57    58    61    1
    58    58    59    1
    59    19    18   ar
    60    65    76    1
    61    65    63   ar
    62     7     3    1
    63    16     5    1
    64    16    17   ar
    65    12     4    1
    66     5     4   ar
    67     5     6   ar
    68     4     3   ar
    69     6     1   ar
    70     1     2   ar
    71     1     9    1
    72     2     3   ar
    73     2     8    1
    74    76    74   ar
    75    77    82    1
    76    77    75   ar
    77    38    37   ar
    78    38    41    1
    79    37    45    1
    80    62    63   ar
    81    62    70    1
    82    63    66    1
    83    18    17   ar
    84    18    25    1
    85    17    21    1
    86    74    75   ar
    87    74    83    1
    88    75    78    1
    89    45    46    1
    90    25    26    1
    91    83    84    3
    92    84    85    1
