@<TRIPOS>MOLECULE
mol_data/noopt/geoms/mol2/6hh6aa-12fi13fa13ed13lh-6dd12da.out
 88 95 0 0 0
SMALL
GASTEIGER

@<TRIPOS>ATOM
      1 C          -4.5775   -2.0270    0.0001 C.ar    1  LIG1        0.1169
      2 C          -3.1706   -2.0270    0.0001 C.ar    1  LIG1       -0.0203
      3 C          -2.5039   -0.8004    0.0001 C.ar    1  LIG1       -0.0357
      4 C          -3.2580    0.3743   -0.0001 C.ar    1  LIG1        0.0511
      5 C          -4.6612    0.2715   -0.0003 C.ar    1  LIG1        0.0951
      6 N          -5.3207   -0.9034   -0.0001 N.ar    1  LIG1       -0.2306
      7 H          -1.4054   -0.7607   -0.0009 H       1  LIG1        0.0638
      8 H          -2.5135   -3.1487    0.0004 H       1  LIG1        0.0652
      9 N          -5.2431   -3.1437    0.0002 N.pl3   1  LIG1       -0.3431
     10 H          -6.1151   -3.0120   -0.4712 H       1  LIG1        0.1437
     11 H          -4.7125   -3.8481   -0.4712 H       1  LIG1        0.1437
     12 N          -2.6846    1.5410   -0.0003 N.pl3   1  LIG1       -0.3563
     13 H          -1.8048    1.4799   -0.4718 H       1  LIG1        0.1424
     14 H          -3.2703    2.2002   -0.4718 H       1  LIG1        0.1424
     15 C          -6.8087    1.2234   -0.0215 C.ar    1  LIG1        0.0376
     16 C          -5.4065    1.3366   -0.0004 C.ar    1  LIG1        0.0203
     17 C          -4.8409    2.6128    0.0206 C.ar    1  LIG1       -0.0489
     18 C          -5.6872    3.7230    0.0196 C.ar    1  LIG1       -0.0319
     19 C          -7.0774    3.5076   -0.0025 C.ar    1  LIG1        0.1097
     20 N          -7.6400    2.2835   -0.0227 N.ar    1  LIG1       -0.2511
     21 H          -3.7493    2.7408    0.0363 H       1  LIG1        0.0625
     22 H          -7.3820    0.0568   -0.0413 H       1  LIG1        0.0836
     23 H          -5.2098    4.9320    0.0384 H       1  LIG1        0.0640
     24 C          -7.9061    4.5092   -0.0043 C.ar    1  LIG1        0.1952
     25 C          -7.7875    5.8836   -0.0056 C.ar    1  LIG1        0.1678
     26 C          -9.1341    6.4161   -0.0073 C.ar    1  LIG1        0.0391
     27 C          -9.9866    5.3313   -0.0070 C.ar    1  LIG1        0.1619
     28 O          -9.2531    4.1444   -0.0052 O.2     1  LIG1       -0.4476
     29 O          -6.6948    6.5880   -0.0053 O.3     1  LIG1       -0.5030
     30 H          -6.9159    7.5222   -0.0052 H       1  LIG1        0.2923
     31 C          -9.4503    7.6774   -0.0088 C.3     1  LIG1       -0.0325
     32 H         -10.3846    7.8116    0.4952 H       1  LIG1        0.0280
     33 H          -9.5368    8.0222   -1.0181 H       1  LIG1        0.0280
     34 H          -8.6897    8.2364    0.4951 H       1  LIG1        0.0280
     35 C         -11.2762    5.1666   -0.0079 C.ar    1  LIG1        0.1249
     36 C         -12.2820    6.0809    0.0077 C.ar    1  LIG1        0.1457
     37 C         -13.5178    5.3574   -0.0009 C.ar    1  LIG1        0.0074
     38 C         -13.2127    4.0328   -0.0232 C.ar    1  LIG1        0.0682
     39 N         -11.8414    3.9115   -0.0271 N.ar    1  LIG1       -0.3476
     40 H         -11.3392    3.0539   -0.0420 H       1  LIG1        0.1661
     41 O         -12.1437    7.3734    0.0283 O.3     1  LIG1       -0.5045
     42 H         -13.0094    7.7883    0.0334 H       1  LIG1        0.2922
     43 H         -14.7128    5.8691    0.0100 H       1  LIG1        0.0676
     44 C         -13.9874    2.9889   -0.0383 C.ar    1  LIG1        0.0797
     45 C         -15.3436    2.8971   -0.0490 C.ar    1  LIG1        0.0598
     46 C         -15.6780    1.5048   -0.0630 C.ar    1  LIG1        0.0283
     47 C         -14.5113    0.8069   -0.0621 C.ar    1  LIG1        0.0763
     48 N         -13.4738    1.7117   -0.0465 N.ar    1  LIG1       -0.3503
     49 H         -12.5073    1.4795   -0.0426 H       1  LIG1        0.1660
     50 C         -16.1799    3.8925   -0.0454 C.1     1  LIG1       -0.0669
     51 C         -16.9526    4.8121   -0.0421 C.1     1  LIG1       -0.1138
     52 H         -17.6409    5.6313   -0.0391 H       1  LIG1        0.1232
     53 N         -17.9307    0.5506   -0.0855 N.3     1  LIG1       -0.1324
     54 C         -16.8750    0.9978   -0.0749 C.3     1  LIG1        0.0975
     55 C         -14.2951   -0.4749   -0.0720 C.ar    1  LIG1        0.1131
     56 C         -15.1685   -1.5166   -0.0792 C.ar    1  LIG1        0.2266
     57 C         -14.3960   -2.7223   -0.0879 C.ar    1  LIG1        0.0983
     58 C         -13.0846   -2.3645   -0.0875 C.ar    1  LIG1        0.0745
     59 N         -13.0183   -0.9894   -0.0774 N.ar    1  LIG1       -0.3484
     60 H         -12.1813   -0.4532   -0.0749 H       1  LIG1        0.1661
     61 O         -16.4657   -1.4301   -0.0768 O.3     1  LIG1       -0.2836
     62 C         -16.8522   -0.0534   -0.0760 C.3     1  LIG1       -0.0400
     63 H         -17.9199    0.0173   -0.0742 H       1  LIG1        0.0250
     64 H         -16.4616    0.4263    0.7971 H       1  LIG1        0.0250
     65 H         -16.4645    0.4265   -0.9502 H       1  LIG1        0.0250
     66 N         -14.8597   -3.9369   -0.0954 N.pl3   1  LIG1       -0.3533
     67 H         -15.7404   -3.9545   -0.5687 H       1  LIG1        0.1425
     68 H         -14.2148   -4.5369   -0.5687 H       1  LIG1        0.1425
     69 C         -10.7390   -2.4940   -0.0972 C.ar    1  LIG1        0.1500
     70 C         -12.0104   -3.0966   -0.0939 C.ar    1  LIG1        0.0364
     71 C         -12.0875   -4.4906   -0.0972 C.ar    1  LIG1       -0.0425
     72 C         -10.9029   -5.2291   -0.1039 C.ar    1  LIG1        0.0099
     73 C          -9.6790   -4.5352   -0.1070 C.ar    1  LIG1        0.1130
     74 N          -9.5862   -3.1910   -0.1037 N.ar    1  LIG1       -0.2322
     75 H         -13.0631   -4.9969   -0.0958 H       1  LIG1        0.0629
     76 N         -10.5072   -0.0585   -0.0915 N.1     1  LIG1       -0.1893
     77 C         -10.6159   -1.1999   -0.0942 C.1     1  LIG1        0.1198
     78 N         -10.9377   -7.6754   -0.1106 N.3     1  LIG1       -0.1262
     79 C         -10.9214   -6.5289   -0.1075 C.3     1  LIG1        0.1366
     80 C          -8.5493   -5.1784   -0.1131 C.ar    1  LIG1        0.1584
     81 C          -8.1735   -6.5058   -0.1178 C.ar    1  LIG1        0.0274
     82 C          -6.7256   -6.5269   -0.1238 C.ar    1  LIG1       -0.0180
     83 C          -6.3125   -5.2104   -0.1225 C.ar    1  LIG1        0.0930
     84 O          -7.4188   -4.3602   -0.1161 O.2     1  LIG1       -0.4610
     85 H          -5.1649   -4.5998   -0.1258 H       1  LIG1        0.1029
     86 N          -9.6271   -8.4737   -0.1162 N.3     1  LIG1       -0.1261
     87 C          -8.9459   -7.5514   -0.1170 C.3     1  LIG1        0.1382
     88 H          -5.9834   -7.5942   -0.1293 H       1  LIG1        0.0652
@<TRIPOS>BOND
     1    33    31    1
     2    65    62    1
     3    68    66    1
     4    67    66    1
     5    14    12    1
     6    13    12    1
     7    11     9    1
     8    10     9    1
     9    88    82    1
    10    85    83    1
    11    82    83   ar
    12    82    81   ar
    13    83    84   ar
    14    81    87    1
    15    81    80   ar
    16    87    86    1
    17    86    78    1
    18    84    80   ar
    19    80    73    1
    20    78    79    1
    21    79    72    1
    22    73    72   ar
    23    73    74   ar
    24    72    71   ar
    25    74    69   ar
    26    71    75    1
    27    71    70   ar
    28    69    77    1
    29    69    70   ar
    30    66    57    1
    31    77    76    3
    32    70    58    1
    33    57    58   ar
    34    57    56   ar
    35    58    59   ar
    36    53    54    1
    37    56    61    1
    38    56    55   ar
    39    59    60    1
    40    59    55   ar
    41    62    54    1
    42    62    63    1
    43    62    64    1
    44    55    47    1
    45    46    47   ar
    46    46    45   ar
    47    47    48   ar
    48    45    50    1
    49    45    44   ar
    50    48    49    1
    51    48    44   ar
    52    50    51    3
    53    51    52    1
    54    40    39    1
    55    22    15    1
    56    44    38    1
    57    39    38   ar
    58    39    35   ar
    59    38    37   ar
    60    20    15   ar
    61    20    19   ar
    62    15    16   ar
    63    31    26    1
    64    31    34    1
    65    31    32    1
    66    35    27    1
    67    35    36   ar
    68    26    27   ar
    69    26    25   ar
    70    27    28   ar
    71    25    29    1
    72    25    24   ar
    73    29    30    1
    74    28    24   ar
    75    24    19    1
    76    19    18   ar
    77    37    36   ar
    78    37    43    1
    79     7     3    1
    80    16     5    1
    81    16    17   ar
    82     5     4   ar
    83     5     6   ar
    84    12     4    1
    85     4     3   ar
    86     6     1   ar
    87     2     3   ar
    88     2     1   ar
    89     2     8    1
    90     1     9    1
    91    36    41    1
    92    18    17   ar
    93    18    23    1
    94    17    21    1
    95    41    42    1
