@<TRIPOS>MOLECULE
mol_data/noopt/geoms/mol2/6hh6hh6hh6hh.out
 54 57 0 0 0
SMALL
GASTEIGER

@<TRIPOS>ATOM
      1 C          -4.5775   -2.0270    0.0001 C.ar    1  LIG1        0.1169
      2 C          -3.1706   -2.0270    0.0001 C.ar    1  LIG1       -0.0203
      3 C          -2.5039   -0.8004    0.0001 C.ar    1  LIG1       -0.0357
      4 C          -3.2580    0.3743   -0.0001 C.ar    1  LIG1        0.0511
      5 C          -4.6612    0.2715   -0.0003 C.ar    1  LIG1        0.0970
      6 N          -5.3207   -0.9034   -0.0001 N.ar    1  LIG1       -0.2305
      7 H          -1.4054   -0.7607   -0.0009 H       1  LIG1        0.0638
      8 H          -2.5135   -3.1487    0.0004 H       1  LIG1        0.0652
      9 N          -5.2431   -3.1437    0.0002 N.pl3   1  LIG1       -0.3431
     10 H          -6.1151   -3.0120   -0.4712 H       1  LIG1        0.1437
     11 H          -4.7125   -3.8481   -0.4712 H       1  LIG1        0.1437
     12 N          -2.6846    1.5410   -0.0003 N.pl3   1  LIG1       -0.3563
     13 H          -1.8048    1.4799   -0.4718 H       1  LIG1        0.1424
     14 H          -3.2703    2.2002   -0.4718 H       1  LIG1        0.1424
     15 C          -6.8088    1.2233   -0.0003 C.ar    1  LIG1        0.1263
     16 C          -5.4065    1.3366   -0.0004 C.ar    1  LIG1        0.0435
     17 C          -4.8408    2.6129   -0.0003 C.ar    1  LIG1       -0.0264
     18 C          -5.6871    3.7231   -0.0003 C.ar    1  LIG1        0.0518
     19 C          -7.0774    3.5076   -0.0004 C.ar    1  LIG1        0.0970
     20 N          -7.6401    2.2834   -0.0003 N.ar    1  LIG1       -0.2298
     21 H          -3.7491    2.7410   -0.0014 H       1  LIG1        0.0644
     22 N          -7.3823    0.0566   -0.0003 N.pl3   1  LIG1       -0.3426
     23 H          -8.2621    0.1177   -0.4717 H       1  LIG1        0.1437
     24 H          -6.7967   -0.6027   -0.4717 H       1  LIG1        0.1437
     25 N          -5.2095    4.9322   -0.0004 N.pl3   1  LIG1       -0.3563
     26 H          -4.3276    4.9422   -0.4718 H       1  LIG1        0.1424
     27 H          -5.8464    5.5421   -0.4718 H       1  LIG1        0.1424
     28 C          -9.2948    4.2833   -0.0001 C.ar    1  LIG1        0.1263
     29 C          -7.9061    4.5092   -0.0003 C.ar    1  LIG1        0.0435
     30 C          -7.4450    5.8270   -0.0001 C.ar    1  LIG1       -0.0264
     31 C          -8.3780    6.8653    0.0002 C.ar    1  LIG1        0.0518
     32 C          -9.7465    6.5385    0.0002 C.ar    1  LIG1        0.0970
     33 N         -10.2087    5.2730    0.0002 N.ar    1  LIG1       -0.2298
     34 H          -6.3672    6.0425   -0.0012 H       1  LIG1        0.0644
     35 N          -9.7724    3.0742   -0.0002 N.pl3   1  LIG1       -0.3426
     36 H         -10.6542    3.0642   -0.4716 H       1  LIG1        0.1437
     37 H          -9.1355    2.4643   -0.4716 H       1  LIG1        0.1437
     38 N          -7.9993    8.1090    0.0002 N.pl3   1  LIG1       -0.3563
     39 H          -7.1212    8.1900   -0.4712 H       1  LIG1        0.1424
     40 H          -8.6833    8.6657   -0.4712 H       1  LIG1        0.1424
     41 C         -12.0191    7.1331    0.0008 C.ar    1  LIG1        0.1255
     42 C         -10.6531    7.4702    0.0005 C.ar    1  LIG1        0.0434
     43 C         -10.2997    8.8208    0.0008 C.ar    1  LIG1       -0.0270
     44 C         -11.3132    9.7806    0.0012 C.ar    1  LIG1        0.0437
     45 C         -12.6510    9.3446    0.0013 C.ar    1  LIG1        0.0503
     46 N         -13.0098    8.0460    0.0012 N.ar    1  LIG1       -0.2382
     47 H          -9.2427    9.1225   -0.0004 H       1  LIG1        0.0644
     48 H         -13.6297   10.2002    0.0018 H       1  LIG1        0.0849
     49 N         -12.3978    5.8895    0.0006 N.pl3   1  LIG1       -0.3426
     50 H         -13.2759    5.8086   -0.4709 H       1  LIG1        0.1437
     51 H         -11.7138    5.3328   -0.4709 H       1  LIG1        0.1437
     52 N         -11.0360   11.0507    0.0014 N.pl3   1  LIG1       -0.3568
     53 H         -10.1672   11.2023   -0.4700 H       1  LIG1        0.1424
     54 H         -11.7626   11.5505   -0.4700 H       1  LIG1        0.1424
@<TRIPOS>BOND
     1    27    25    1
     2    26    25    1
     3    14    12    1
     4    13    12    1
     5    24    22    1
     6    23    22    1
     7    37    35    1
     8    36    35    1
     9    40    38    1
    10    11     9    1
    11    39    38    1
    12    10     9    1
    13    51    49    1
    14    50    49    1
    15    54    52    1
    16    53    52    1
    17    21    17    1
    18    34    30    1
    19     7     3    1
    20    47    43    1
    21    16     5    1
    22    16    15   ar
    23    16    17   ar
    24    19    20   ar
    25    19    29    1
    26    19    18   ar
    27    25    18    1
    28    12     4    1
    29     5     6   ar
    30     5     4   ar
    31    15    22    1
    32    15    20   ar
    33    17    18   ar
    34    29    28   ar
    35    29    30   ar
    36    35    28    1
    37     6     1   ar
    38     4     3   ar
    39    28    33   ar
    40    30    31   ar
    41     2     3   ar
    42     2     1   ar
    43     2     8    1
    44     1     9    1
    45    33    32   ar
    46    32    31   ar
    47    32    42    1
    48    31    38    1
    49    42    41   ar
    50    42    43   ar
    51    49    41    1
    52    41    46   ar
    53    43    44   ar
    54    46    45   ar
    55    44    45   ar
    56    44    52    1
    57    45    48    1
