@<TRIPOS>MOLECULE
mol_data/noopt/geoms/mol2/6hh6hh.out
 28 29 0 0 0
SMALL
GASTEIGER

@<TRIPOS>ATOM
      1 C          -4.5775   -2.0270    0.0001 C.ar    1  LIG1        0.1169
      2 C          -3.1706   -2.0270    0.0001 C.ar    1  LIG1       -0.0203
      3 C          -2.5039   -0.8004    0.0001 C.ar    1  LIG1       -0.0357
      4 C          -3.2580    0.3743   -0.0001 C.ar    1  LIG1        0.0511
      5 C          -4.6612    0.2715   -0.0003 C.ar    1  LIG1        0.0970
      6 N          -5.3207   -0.9034   -0.0001 N.ar    1  LIG1       -0.2305
      7 H          -1.4054   -0.7607   -0.0009 H       1  LIG1        0.0638
      8 H          -2.5135   -3.1487    0.0004 H       1  LIG1        0.0652
      9 N          -5.2431   -3.1437    0.0002 N.pl3   1  LIG1       -0.3431
     10 H          -6.1151   -3.0120   -0.4712 H       1  LIG1        0.1437
     11 H          -4.7125   -3.8481   -0.4712 H       1  LIG1        0.1437
     12 N          -2.6846    1.5410   -0.0003 N.pl3   1  LIG1       -0.3563
     13 H          -1.8048    1.4799   -0.4718 H       1  LIG1        0.1424
     14 H          -3.2703    2.2002   -0.4718 H       1  LIG1        0.1424
     15 C          -6.8088    1.2233   -0.0003 C.ar    1  LIG1        0.1255
     16 C          -5.4065    1.3366   -0.0004 C.ar    1  LIG1        0.0434
     17 C          -4.8408    2.6129   -0.0003 C.ar    1  LIG1       -0.0270
     18 C          -5.6871    3.7231   -0.0003 C.ar    1  LIG1        0.0437
     19 C          -7.0774    3.5076   -0.0004 C.ar    1  LIG1        0.0503
     20 N          -7.6401    2.2834   -0.0003 N.ar    1  LIG1       -0.2382
     21 H          -3.7491    2.7410   -0.0014 H       1  LIG1        0.0644
     22 H          -7.9061    4.5092   -0.0003 H       1  LIG1        0.0849
     23 N          -7.3823    0.0566   -0.0003 N.pl3   1  LIG1       -0.3426
     24 H          -8.2621    0.1177   -0.4717 H       1  LIG1        0.1437
     25 H          -6.7967   -0.6027   -0.4717 H       1  LIG1        0.1437
     26 N          -5.2095    4.9322   -0.0004 N.pl3   1  LIG1       -0.3568
     27 H          -4.3276    4.9422   -0.4718 H       1  LIG1        0.1424
     28 H          -5.8464    5.5421   -0.4718 H       1  LIG1        0.1424
@<TRIPOS>BOND
     1    28    26    1
     2    27    26    1
     3    14    12    1
     4    13    12    1
     5    25    23    1
     6    24    23    1
     7    11     9    1
     8    10     9    1
     9    21    17    1
    10     7     3    1
    11    16     5    1
    12    16    15   ar
    13    16    17   ar
    14    19    20   ar
    15    19    22    1
    16    19    18   ar
    17    26    18    1
    18     5     6   ar
    19     5     4   ar
    20    12     4    1
    21    15    23    1
    22    15    20   ar
    23    17    18   ar
    24     6     1   ar
    25     4     3   ar
    26     1     2   ar
    27     1     9    1
    28     3     2   ar
    29     2     8    1
