@<TRIPOS>MOLECULE
mol_data/noopt/geoms/mol2/6hi13hl-12al6ii.out
 56 58 0 0 0
SMALL
GASTEIGER

@<TRIPOS>ATOM
      1 C          -4.5775   -2.0270    0.0001 C.ar    1  LIG1        0.1169
      2 C          -3.1706   -2.0270    0.0001 C.ar    1  LIG1       -0.0215
      3 C          -2.5039   -0.8004    0.0001 C.ar    1  LIG1       -0.0486
      4 C          -3.2580    0.3743   -0.0001 C.ar    1  LIG1        0.0118
      5 C          -4.6612    0.2715   -0.0003 C.ar    1  LIG1        0.0989
      6 N          -5.3207   -0.9034   -0.0001 N.ar    1  LIG1       -0.2303
      7 H          -1.4054   -0.7607   -0.0009 H       1  LIG1        0.0625
      8 H          -2.5135   -3.1487    0.0004 H       1  LIG1        0.0652
      9 N          -5.2431   -3.1437    0.0002 N.pl3   1  LIG1       -0.3431
     10 H          -6.1151   -3.0120   -0.4712 H       1  LIG1        0.1437
     11 H          -4.7125   -3.8481   -0.4712 H       1  LIG1        0.1437
     12 C          -2.6845    1.5413   -0.0003 C.3     2  LIG2       -0.0681
     13 H          -3.3112    2.2468    0.5041 H       1  LIG1        0.0227
     14 H          -2.5273    1.8613   -1.0092 H       1  LIG1        0.0227
     15 H          -1.7430    1.4761    0.5040 H       1  LIG1        0.0227
     16 C          -5.4065    1.3366   -0.0004 C.ar    1  LIG1        0.0907
     17 C          -5.0647    2.6523    0.0158 C.ar    1  LIG1        0.0947
     18 C          -6.2798    3.4100    0.0080 C.ar    1  LIG1        0.1695
     19 C          -7.3107    2.5241   -0.0144 C.ar    1  LIG1        0.1268
     20 N          -6.7805    1.2536   -0.0191 N.ar    1  LIG1       -0.3461
     21 H          -7.3063    0.4102   -0.0343 H       1  LIG1        0.1662
     22 N          -3.8561    3.1306    0.0362 N.pl3   1  LIG1       -0.3534
     23 H          -3.2388    2.4968   -0.4299 H       1  LIG1        0.1425
     24 H          -3.8398    4.0152   -0.4300 H       1  LIG1        0.1425
     25 O          -6.3823    4.7059    0.0196 O.3     1  LIG1       -0.4910
     26 C          -5.0761    5.2879    0.0238 C.3     1  LIG1        0.0790
     27 H          -5.1608    6.3545    0.0332 H       1  LIG1        0.0660
     28 H          -4.5443    4.9647    0.8943 H       1  LIG1        0.0660
     29 H          -4.5456    4.9800   -0.8529 H       1  LIG1        0.0660
     30 C          -8.5950    2.7246   -0.0290 C.ar    1  LIG1        0.1591
     31 C          -9.4176    3.8320   -0.0252 C.ar    1  LIG1        0.0282
     32 C         -10.7785    3.3380   -0.0501 C.ar    1  LIG1        0.1663
     33 C         -10.6973    1.9608   -0.0675 C.ar    1  LIG1        0.1788
     34 O          -9.3614    1.5585   -0.0551 O.2     1  LIG1       -0.4494
     35 H          -9.0667    5.0836   -0.0036 H       1  LIG1        0.0693
     36 O         -11.8512    4.0725   -0.0547 O.3     1  LIG1       -0.4913
     37 C         -11.4834    5.4544   -0.0564 C.3     1  LIG1        0.0790
     38 H         -12.3666    6.0585   -0.0604 H       1  LIG1        0.0660
     39 H         -10.9069    5.6712    0.8186 H       1  LIG1        0.0660
     40 H         -10.9016    5.6675   -0.9287 H       1  LIG1        0.0660
     41 C         -11.1081   -0.3518   -0.1054 C.ar    1  LIG1        0.0490
     42 C         -11.5533    0.9827   -0.0921 C.ar    1  LIG1        0.0422
     43 C         -12.9278    1.2271   -0.1056 C.ar    1  LIG1       -0.0449
     44 C         -13.8034    0.1403   -0.1319 C.ar    1  LIG1       -0.0317
     45 C         -13.2618   -1.1582   -0.1436 C.ar    1  LIG1        0.0308
     46 N         -11.9386   -1.4122   -0.1307 N.ar    1  LIG1       -0.2592
     47 H         -13.3131    2.2566   -0.0969 H       1  LIG1        0.0628
     48 H         -14.0362   -2.2021   -0.1680 H       1  LIG1        0.0832
     49 C          -9.8379   -0.6300   -0.0936 C.3     1  LIG1       -0.0217
     50 H          -9.3071    0.1480    0.4141 H       1  LIG1        0.0293
     51 H          -9.4805   -0.7082   -1.0991 H       1  LIG1        0.0293
     52 H          -9.6810   -1.5588    0.4140 H       1  LIG1        0.0293
     53 C         -15.0918    0.3152   -0.1454 C.3     1  LIG1       -0.0383
     54 H         -15.5680   -0.5018    0.3552 H       1  LIG1        0.0278
     55 H         -15.4348    0.3617   -1.1580 H       1  LIG1        0.0278
     56 H         -15.3328    1.2296    0.3552 H       1  LIG1        0.0278
@<TRIPOS>BOND
     1    55    53    1
     2    51    49    1
     3    14    12    1
     4    40    37    1
     5    29    26    1
     6    11     9    1
     7    10     9    1
     8    24    22    1
     9    23    22    1
    10    48    45    1
    11    53    44    1
    12    53    56    1
    13    53    54    1
    14    45    44   ar
    15    45    46   ar
    16    44    43   ar
    17    46    41   ar
    18    43    47    1
    19    43    42   ar
    20    41    49    1
    21    41    42   ar
    22    49    52    1
    23    49    50    1
    24    42    33    1
    25    33    34   ar
    26    33    32   ar
    27    38    37    1
    28    37    36    1
    29    37    39    1
    30    34    30   ar
    31    36    32    1
    32    32    31   ar
    33    21    20    1
    34    30    31   ar
    35    30    19    1
    36    31    35    1
    37    20    19   ar
    38    20    16   ar
    39    19    18   ar
    40     7     3    1
    41    16     5    1
    42    16    17   ar
    43    12    15    1
    44    12    13    1
    45     5     6   ar
    46     5     4   ar
    47     6     1   ar
    48     4     3   ar
    49     1     2   ar
    50     1     9    1
    51     2     3   ar
    52     2     8    1
    53    18    17   ar
    54    18    25    1
    55    17    22    1
    56    25    26    1
    57    26    27    1
    58    26    28    1
