@<TRIPOS>MOLECULE
mol_data/noopt/geoms/mol2/6hi12ed-13fe-4ia-.out
 50 53 0 0 0
SMALL
GASTEIGER

@<TRIPOS>ATOM
      1 C          -4.5775   -2.0270    0.0001 C.ar    1  LIG1        0.1169
      2 C          -3.1706   -2.0270    0.0001 C.ar    1  LIG1       -0.0218
      3 C          -2.5039   -0.8004    0.0001 C.ar    1  LIG1       -0.0535
      4 C          -3.2580    0.3743   -0.0001 C.ar    1  LIG1       -0.0213
      5 C          -4.6612    0.2715   -0.0003 C.ar    1  LIG1        0.1122
      6 N          -5.3207   -0.9034   -0.0001 N.ar    1  LIG1       -0.2290
      7 H          -1.4054   -0.7607   -0.0009 H       1  LIG1        0.0622
      8 H          -2.5135   -3.1487    0.0004 H       1  LIG1        0.0652
      9 N          -5.2431   -3.1437    0.0002 N.pl3   1  LIG1       -0.3431
     10 H          -6.1151   -3.0120   -0.4712 H       1  LIG1        0.1437
     11 H          -4.7125   -3.8481   -0.4712 H       1  LIG1        0.1437
     12 C          -2.6845    1.5413   -0.0003 C.3     1  LIG1       -0.0376
     13 H          -3.3112    2.2468    0.5041 H       1  LIG1        0.0278
     14 H          -2.5273    1.8613   -1.0092 H       1  LIG1        0.0278
     15 H          -1.7430    1.4761    0.5040 H       1  LIG1        0.0278
     16 C          -5.4065    1.3366   -0.0004 C.ar    1  LIG1        0.1708
     17 C          -5.1777    2.6969    0.0143 C.ar    1  LIG1        0.0900
     18 C          -6.4770    3.3362    0.0035 C.ar    1  LIG1        0.1150
     19 C          -7.4140    2.3237   -0.0171 C.ar    1  LIG1        0.1740
     20 O          -6.7784    1.0815   -0.0201 O.2     1  LIG1       -0.4491
     21 C          -4.0320    3.3109    0.0342 C.1     1  LIG1       -0.0645
     22 C          -2.9734    3.8782    0.0525 C.1     1  LIG1       -0.1138
     23 H          -2.0304    4.3836    0.0688 H       1  LIG1        0.1232
     24 N          -6.8789    5.7495    0.0195 N.1     1  LIG1       -0.1907
     25 C          -6.6906    4.6185    0.0120 C.1     1  LIG1        0.1043
     26 C          -8.7125    2.2634   -0.0340 C.ar    1  LIG1        0.1271
     27 C          -9.6413    3.2559   -0.0458 C.ar    1  LIG1        0.1611
     28 C         -10.9313    2.6343   -0.0616 C.ar    1  LIG1        0.0920
     29 C         -10.7340    1.2893   -0.0605 C.ar    1  LIG1        0.0665
     30 N          -9.3770    1.0578   -0.0431 N.ar    1  LIG1       -0.3478
     31 H          -8.9455    0.1624   -0.0386 H       1  LIG1        0.1661
     32 O          -9.3993    4.5333   -0.0418 O.3     1  LIG1       -0.5034
     33 H         -10.2287    5.0166   -0.0408 H       1  LIG1        0.2923
     34 C         -12.0810    3.2409   -0.0749 C.1     1  LIG1       -0.0638
     35 C         -13.1434    3.8013   -0.0873 C.1     1  LIG1       -0.1137
     36 H         -14.0898    4.3005   -0.0983 H       1  LIG1        0.1232
     37 C         -12.9726    0.5874   -0.0555 C.ar    1  LIG1       -0.0413
     38 C         -13.8590   -0.5068   -0.0670 C.ar    1  LIG1       -0.0582
     39 C         -11.5901    0.3111   -0.0716 C.ar    1  LIG1        0.0025
     40 C         -13.3919   -1.8189   -0.0939 C.ar    1  LIG1       -0.0615
     41 H         -14.9298   -0.3162   -0.0547 H       1  LIG1        0.0620
     42 C         -11.1232   -0.9986   -0.0984 C.ar    1  LIG1       -0.0523
     43 C         -12.0197   -2.0722   -0.1099 C.ar    1  LIG1       -0.0611
     44 H         -10.0525   -1.1857   -0.1103 H       1  LIG1        0.0624
     45 H         -14.2386   -2.8054   -0.1039 H       1  LIG1        0.0618
     46 C         -13.4684    1.7892   -0.0306 C.3     1  LIG1       -0.0391
     47 H         -14.4083    1.7768    0.4806 H       1  LIG1        0.0278
     48 H         -13.6119    2.1368   -1.0324 H       1  LIG1        0.0278
     49 H         -12.7930    2.4431    0.4806 H       1  LIG1        0.0278
     50 H         -11.5775   -3.2944   -0.1348 H       1  LIG1        0.0618
@<TRIPOS>BOND
     1    48    46    1
     2    14    12    1
     3    11     9    1
     4    10     9    1
     5    50    43    1
     6    44    42    1
     7    43    42   ar
     8    43    40   ar
     9    45    40    1
    10    42    39   ar
    11    36    35    1
    12    40    38   ar
    13    35    34    3
    14    34    28    1
    15    39    29    1
    16    39    37   ar
    17    38    37   ar
    18    38    41    1
    19    28    29   ar
    20    28    27   ar
    21    29    30   ar
    22    37    46    1
    23    27    32    1
    24    27    26   ar
    25    30    31    1
    26    30    26   ar
    27    32    33    1
    28    26    19    1
    29    46    49    1
    30    46    47    1
    31    20    19   ar
    32    20    16   ar
    33    19    18   ar
    34     7     3    1
    35    16     5    1
    36    16    17   ar
    37     5     4   ar
    38     5     6   ar
    39    12     4    1
    40    12    15    1
    41    12    13    1
    42     4     3   ar
    43     6     1   ar
    44     1     2   ar
    45     1     9    1
    46     2     3   ar
    47     2     8    1
    48    18    25    1
    49    18    17   ar
    50    25    24    3
    51    17    21    1
    52    21    22    3
    53    22    23    1
