@<TRIPOS>MOLECULE
mol_data/noopt/geoms/mol2/6hi13ed6ha12dl.out
 50 53 0 0 0
SMALL
GASTEIGER

@<TRIPOS>ATOM
      1 C          -4.5775   -2.0270    0.0001 C.ar    1  LIG1        0.1169
      2 C          -3.1706   -2.0270    0.0001 C.ar    1  LIG1       -0.0218
      3 C          -2.5039   -0.8004    0.0001 C.ar    1  LIG1       -0.0535
      4 C          -3.2580    0.3743   -0.0001 C.ar    1  LIG1       -0.0229
      5 C          -4.6612    0.2715   -0.0003 C.ar    1  LIG1        0.0933
      6 N          -5.3207   -0.9034   -0.0001 N.ar    1  LIG1       -0.2307
      7 H          -1.4054   -0.7607   -0.0009 H       1  LIG1        0.0622
      8 H          -2.5135   -3.1487    0.0004 H       1  LIG1        0.0652
      9 N          -5.2431   -3.1437    0.0002 N.pl3   1  LIG1       -0.3431
     10 H          -6.1151   -3.0120   -0.4712 H       1  LIG1        0.1437
     11 H          -4.7125   -3.8481   -0.4712 H       1  LIG1        0.1437
     12 C          -2.6845    1.5413   -0.0003 C.3     1  LIG1       -0.0376
     13 H          -3.3112    2.2468    0.5041 H       1  LIG1        0.0278
     14 H          -2.5273    1.8613   -1.0092 H       1  LIG1        0.0278
     15 H          -1.7430    1.4761    0.5040 H       1  LIG1        0.0278
     16 C          -5.4065    1.3366   -0.0004 C.ar    1  LIG1        0.0826
     17 C          -5.0646    2.6523   -0.0008 C.ar    1  LIG1        0.0694
     18 C          -6.2797    3.4100    0.0004 C.ar    1  LIG1        0.0931
     19 C          -7.3108    2.5240   -0.0003 C.ar    1  LIG1        0.0691
     20 N          -6.7806    1.2535   -0.0003 N.ar    1  LIG1       -0.3509
     21 H          -7.3066    0.4100   -0.0008 H       1  LIG1        0.1660
     22 C          -3.8559    3.1308   -0.0007 C.1     1  LIG1       -0.0662
     23 C          -2.7390    3.5729   -0.0006 C.1     1  LIG1       -0.1138
     24 H          -1.7441    3.9667   -0.0005 H       1  LIG1        0.1232
     25 N          -6.4724    5.8490    0.0023 N.1     1  LIG1       -0.1908
     26 C          -6.3821    4.7060    0.0014 C.1     1  LIG1        0.1025
     27 C          -9.4850    1.6346    0.0006 C.ar    1  LIG1        0.1261
     28 C          -8.5952    2.7244    0.0002 C.ar    1  LIG1        0.0391
     29 C          -9.1237    4.0166    0.0006 C.ar    1  LIG1       -0.0472
     30 C         -10.5106    4.1754    0.0013 C.ar    1  LIG1       -0.0319
     31 C         -11.3184    3.0235    0.0014 C.ar    1  LIG1        0.1095
     32 N         -10.8254    1.7696    0.0012 N.ar    1  LIG1       -0.2286
     33 H          -8.4597    4.8926   -0.0007 H       1  LIG1        0.0626
     34 N          -9.0410    0.4128    0.0004 N.pl3   1  LIG1       -0.3426
     35 H          -9.6946   -0.1792   -0.4711 H       1  LIG1        0.1437
     36 H          -8.1598    0.3785   -0.4712 H       1  LIG1        0.1437
     37 H         -11.0516    5.3575    0.0015 H       1  LIG1        0.0640
     38 C         -12.6148    3.1198    0.0021 C.ar    1  LIG1        0.1740
     39 C         -13.5238    4.1574    0.0174 C.ar    1  LIG1        0.1404
     40 C         -14.8407    3.5553    0.0074 C.ar    1  LIG1        0.1757
     41 C         -14.6490    2.1891   -0.0135 C.ar    1  LIG1        0.1355
     42 O         -13.2849    1.8958   -0.0172 O.2     1  LIG1       -0.4563
     43 H         -15.4236    1.1452   -0.0299 H       1  LIG1        0.1068
     44 N         -13.0551    6.5584    0.0546 N.1     1  LIG1       -0.1906
     45 C         -13.2748    5.4332    0.0372 C.1     1  LIG1        0.1067
     46 O         -15.9691    4.2009    0.0166 O.3     1  LIG1       -0.4907
     47 C         -15.7139    5.6079    0.0199 C.3     1  LIG1        0.0790
     48 H         -16.6428    6.1389    0.0273 H       1  LIG1        0.0660
     49 H         -15.1487    5.8659    0.8911 H       1  LIG1        0.0660
     50 H         -15.1592    5.8719   -0.8562 H       1  LIG1        0.0660
@<TRIPOS>BOND
     1    14    12    1
     2    50    47    1
     3    11     9    1
     4    10     9    1
     5    36    34    1
     6    35    34    1
     7    43    41    1
     8    42    41   ar
     9    42    38   ar
    10    41    40   ar
    11     7     3    1
    12    17    22    1
    13    17    16   ar
    14    17    18   ar
    15    21    20    1
    16    22    23    3
    17    33    29    1
    18    23    24    1
    19    16     5    1
    20    16    20   ar
    21    12     4    1
    22    12    15    1
    23    12    13    1
    24     5     6   ar
    25     5     4   ar
    26    20    19   ar
    27    19    28    1
    28    19    18   ar
    29     6     1   ar
    30     4     3   ar
    31     1     2   ar
    32     1     9    1
    33     2     3   ar
    34     2     8    1
    35    28    27   ar
    36    28    29   ar
    37    34    27    1
    38    18    26    1
    39    27    32   ar
    40    29    30   ar
    41    32    31   ar
    42    30    31   ar
    43    30    37    1
    44    26    25    3
    45    31    38    1
    46    38    39   ar
    47    40    46    1
    48    40    39   ar
    49    46    47    1
    50    39    45    1
    51    47    48    1
    52    47    49    1
    53    45    44    3
