@<TRIPOS>MOLECULE
mol_data/noopt/geoms/mol2/6hi12ei-12fe13hd.out
 49 52 0 0 0
SMALL
GASTEIGER

@<TRIPOS>ATOM
      1 C          -4.5775   -2.0270    0.0001 C.ar    1  LIG1        0.1169
      2 C          -3.1706   -2.0270    0.0001 C.ar    1  LIG1       -0.0218
      3 C          -2.5039   -0.8004    0.0001 C.ar    1  LIG1       -0.0535
      4 C          -3.2580    0.3743   -0.0001 C.ar    1  LIG1       -0.0213
      5 C          -4.6612    0.2715   -0.0003 C.ar    1  LIG1        0.1122
      6 N          -5.3207   -0.9034   -0.0001 N.ar    1  LIG1       -0.2290
      7 H          -1.4054   -0.7607   -0.0009 H       1  LIG1        0.0622
      8 H          -2.5135   -3.1487    0.0004 H       1  LIG1        0.0652
      9 N          -5.2431   -3.1437    0.0002 N.pl3   1  LIG1       -0.3431
     10 H          -6.1151   -3.0120   -0.4712 H       1  LIG1        0.1437
     11 H          -4.7125   -3.8481   -0.4712 H       1  LIG1        0.1437
     12 C          -2.6845    1.5413   -0.0003 C.3     1  LIG1       -0.0376
     13 H          -3.3112    2.2468    0.5041 H       1  LIG1        0.0278
     14 H          -2.5273    1.8613   -1.0092 H       1  LIG1        0.0278
     15 H          -1.7430    1.4761    0.5040 H       1  LIG1        0.0278
     16 C          -5.4065    1.3366   -0.0004 C.ar    1  LIG1        0.1698
     17 C          -5.1777    2.6969    0.0143 C.ar    1  LIG1        0.0755
     18 C          -6.4770    3.3362    0.0035 C.ar    1  LIG1        0.0146
     19 C          -7.4140    2.3237   -0.0171 C.ar    1  LIG1        0.1785
     20 O          -6.7784    1.0815   -0.0201 O.2     1  LIG1       -0.4485
     21 C          -4.0320    3.3109    0.0342 C.1     1  LIG1       -0.0655
     22 C          -2.9734    3.8782    0.0525 C.1     1  LIG1       -0.1138
     23 H          -2.0304    4.3836    0.0688 H       1  LIG1        0.1232
     24 C          -6.6906    4.6188    0.0120 C.3     1  LIG1       -0.0348
     25 H          -7.6104    4.8239    0.5188 H       1  LIG1        0.0279
     26 H          -6.7503    4.9772   -0.9945 H       1  LIG1        0.0279
     27 H          -5.8868    5.1109    0.5187 H       1  LIG1        0.0279
     28 C          -8.7125    2.2634   -0.0340 C.ar    1  LIG1        0.2133
     29 C          -9.7397    3.1842   -0.0320 C.ar    1  LIG1        0.1822
     30 C         -10.9745    2.4282   -0.0591 C.ar    1  LIG1        0.1140
     31 C         -10.6196    1.0950   -0.0760 C.ar    1  LIG1        0.1727
     32 O          -9.2302    0.9677   -0.0611 O.2     1  LIG1       -0.4451
     33 O          -9.6461    4.4807   -0.0101 O.3     1  LIG1       -0.5023
     34 H         -10.5257    4.8654   -0.0047 H       1  LIG1        0.2923
     35 C         -12.1722    2.9335   -0.0657 C.1     1  LIG1       -0.0621
     36 C         -13.2790    3.4003   -0.0718 C.1     1  LIG1       -0.1137
     37 H         -14.2648    3.8162   -0.0773 H       1  LIG1        0.1232
     38 C         -11.2629   -0.0345   -0.1018 C.ar    1  LIG1        0.1057
     39 C         -12.5982   -0.2887   -0.1197 C.ar    1  LIG1        0.0709
     40 C         -12.7624   -1.7111   -0.1445 C.ar    1  LIG1        0.0903
     41 C         -11.5202   -2.2634   -0.1425 C.ar    1  LIG1        0.0216
     42 N         -10.5992   -1.2405   -0.1159 N.ar    1  LIG1       -0.3556
     43 H          -9.6118   -1.3546   -0.1087 H       1  LIG1        0.1655
     44 H         -11.1512   -3.5098   -0.1598 H       1  LIG1        0.0820
     45 N         -13.5482    0.5986   -0.1136 N.pl3   1  LIG1       -0.3552
     46 H         -13.2360    1.4243   -0.5835 H       1  LIG1        0.1424
     47 H         -14.3507    0.2310   -0.5835 H       1  LIG1        0.1424
     48 N         -14.8837   -2.9293   -0.1842 N.1     1  LIG1       -0.1908
     49 C         -13.8896   -2.3584   -0.1656 C.1     1  LIG1        0.1025
@<TRIPOS>BOND
     1    14    12    1
     2    26    24    1
     3    47    45    1
     4    46    45    1
     5    11     9    1
     6    10     9    1
     7    48    49    3
     8    49    40    1
     9    44    41    1
    10    40    41   ar
    11    40    39   ar
    12    41    42   ar
    13    39    45    1
    14    39    38   ar
    15    42    43    1
    16    42    38   ar
    17    38    31    1
    18    37    36    1
    19    31    32   ar
    20    31    30   ar
    21    36    35    3
    22    35    30    1
    23    32    28   ar
    24    30    29   ar
    25    28    29   ar
    26    28    19    1
    27    29    33    1
    28    20    19   ar
    29    20    16   ar
    30    19    18   ar
    31    33    34    1
    32     7     3    1
    33    16     5    1
    34    16    17   ar
    35    12     4    1
    36    12    15    1
    37    12    13    1
    38     5     6   ar
    39     5     4   ar
    40     6     1   ar
    41     4     3   ar
    42     1     2   ar
    43     1     9    1
    44     3     2   ar
    45     2     8    1
    46    18    24    1
    47    18    17   ar
    48    24    27    1
    49    24    25    1
    50    17    21    1
    51    21    22    3
    52    22    23    1
