@<TRIPOS>MOLECULE
mol_data/noopt/geoms/mol2/6hi4ee(110)13ee(250)6ad(80).out
 52 55 0 0 0
SMALL
GASTEIGER

@<TRIPOS>ATOM
      1 C          -4.5775   -2.0270    0.0001 C.ar    1  LIG1        0.1168
      2 C          -3.1706   -2.0270    0.0001 C.ar    1  LIG1       -0.0218
      3 C          -2.5039   -0.8004    0.0001 C.ar    1  LIG1       -0.0536
      4 C          -3.2580    0.3743   -0.0001 C.ar    1  LIG1       -0.0243
      5 C          -4.6612    0.2715   -0.0003 C.ar    1  LIG1        0.0772
      6 N          -5.3207   -0.9034   -0.0001 N.ar    1  LIG1       -0.2321
      7 H          -1.4054   -0.7607   -0.0009 H       1  LIG1        0.0622
      8 H          -2.5135   -3.1487    0.0004 H       1  LIG1        0.0652
      9 N          -5.2431   -3.1437    0.0002 N.pl3   1  LIG1       -0.3431
     10 H          -6.1151   -3.0120   -0.4712 H       1  LIG1        0.1437
     11 H          -4.7125   -3.8481   -0.4712 H       1  LIG1        0.1437
     12 C          -2.6845    1.5413   -0.0003 C.3     1  LIG1       -0.0377
     13 H          -3.3112    2.2468    0.5041 H       1  LIG1        0.0278
     14 H          -2.5273    1.8613   -1.0092 H       1  LIG1        0.0278
     15 H          -1.7430    1.4761    0.5040 H       1  LIG1        0.0278
     16 C          -6.1524    1.6721    1.1480 C.ar    1  LIG1        0.0345
     17 C          -6.9454    2.8348    1.0970 C.ar    1  LIG1       -0.0354
     18 C          -5.4065    1.3366   -0.0004 C.ar    1  LIG1        0.0172
     19 C          -6.9945    3.6301   -0.0457 C.ar    1  LIG1        0.0161
     20 H          -7.5291    3.1120    1.9720 H       1  LIG1        0.0637
     21 C          -5.4552    2.1302   -1.1414 C.ar    1  LIG1       -0.0353
     22 C          -6.2486    3.2817   -1.1724 C.ar    1  LIG1        0.0345
     23 H          -4.8709    1.8503   -2.0142 H       1  LIG1        0.0637
     24 C          -6.1473    0.9705    2.2424 C.1     1  LIG1       -0.0690
     25 C          -6.1425    0.3223    3.2537 C.1     1  LIG1       -0.1139
     26 H          -6.1383   -0.2551    4.1545 H       1  LIG1        0.1232
     27 C          -6.2903    4.0197   -2.2418 C.1     1  LIG1       -0.0690
     28 C          -6.3288    4.7016   -3.2300 C.1     1  LIG1       -0.1139
     29 H          -6.3631    5.3089   -4.1102 H       1  LIG1        0.1232
     30 C          -7.7373    4.6970   -0.0581 C.ar    1  LIG1        0.0649
     31 C          -8.5487    5.1955   -1.0281 C.ar    1  LIG1        0.0659
     32 C          -9.1337    6.3995   -0.5194 C.ar    1  LIG1        0.0659
     33 C          -8.6554    6.5828    0.7399 C.ar    1  LIG1        0.0652
     34 N          -7.7998    5.5430    1.0261 N.ar    1  LIG1       -0.3521
     35 H          -7.3061    5.4220    1.8803 H       1  LIG1        0.1660
     36 C          -8.7522    4.6734   -2.2012 C.1     1  LIG1       -0.0663
     37 C          -8.9403    4.1910   -3.2850 C.1     1  LIG1       -0.1138
     38 H          -9.1079    3.7613   -4.2505 H       1  LIG1        0.1232
     39 C          -9.9688    7.1762   -1.1433 C.1     1  LIG1       -0.0663
     40 C         -10.7404    7.8939   -1.7198 C.1     1  LIG1       -0.1138
     41 H         -11.4278    8.5333   -2.2334 H       1  LIG1        0.1232
     42 C          -9.4174    8.7608    1.1806 C.ar    1  LIG1        0.0368
     43 C          -8.8912    7.5262    1.6027 C.ar    1  LIG1        0.0188
     44 C          -8.6312    7.3420    2.9619 C.ar    1  LIG1       -0.0323
     45 C          -8.9028    8.3878    3.8458 C.ar    1  LIG1        0.0704
     46 C          -9.4283    9.5856    3.3276 C.ar    1  LIG1        0.0449
     47 N          -9.6854    9.7803    2.0194 N.ar    1  LIG1       -0.2613
     48 H          -8.2191    6.3913    3.3289 H       1  LIG1        0.0638
     49 H          -9.6978   10.5878    4.1105 H       1  LIG1        0.0842
     50 H          -9.6761    8.9799   -0.0745 H       1  LIG1        0.0836
     51 N          -8.4798    8.1585    6.2446 N.1     1  LIG1       -0.1908
     52 C          -8.6781    8.2660    5.1204 C.1     1  LIG1        0.1007
@<TRIPOS>BOND
     1    38    37    1
     2    29    28    1
     3    37    36    3
     4    28    27    3
     5    27    22    1
     6    41    40    1
     7    36    31    1
     8    23    21    1
     9    40    39    3
    10    22    21   ar
    11    22    19   ar
    12    39    32    1
    13    21    18   ar
    14    31    32   ar
    15    31    30   ar
    16    14    12    1
    17    32    33   ar
    18    11     9    1
    19    10     9    1
    20    50    42    1
    21    30    19    1
    22    30    34   ar
    23    19    17   ar
    24     7     3    1
    25    18     5    1
    26    18    16   ar
    27    12     4    1
    28    12    15    1
    29    12    13    1
    30     5     6   ar
    31     5     4   ar
    32     6     1   ar
    33     4     3   ar
    34     1     2   ar
    35     1     9    1
    36     2     3   ar
    37     2     8    1
    38    33    34   ar
    39    33    43    1
    40    34    35    1
    41    17    16   ar
    42    17    20    1
    43    16    24    1
    44    42    43   ar
    45    42    47   ar
    46    43    44   ar
    47    47    46   ar
    48    24    25    3
    49    44    48    1
    50    44    45   ar
    51    25    26    1
    52    46    45   ar
    53    46    49    1
    54    45    52    1
    55    52    51    3
