@<TRIPOS>MOLECULE
mol_data/noopt/geoms/mol2/6hi6hi-6hi6hi-.out
 58 58 0 0 0
SMALL
GASTEIGER

@<TRIPOS>ATOM
      1 C          -4.5775   -2.0270    0.0001 C.ar    1  LIG1        0.1168
      2 C          -3.1706   -2.0270    0.0001 C.ar    1  LIG1       -0.0215
      3 C          -2.5039   -0.8004    0.0001 C.ar    1  LIG1       -0.0487
      4 C          -3.2580    0.3743   -0.0001 C.ar    1  LIG1        0.0104
      5 C          -4.6612    0.2715   -0.0003 C.ar    1  LIG1        0.0841
      6 N          -5.3207   -0.9034   -0.0001 N.ar    1  LIG1       -0.2317
      7 H          -1.4054   -0.7607   -0.0009 H       1  LIG1        0.0625
      8 H          -2.5135   -3.1487    0.0004 H       1  LIG1        0.0652
      9 N          -5.2431   -3.1437    0.0002 N.pl3   1  LIG1       -0.3431
     10 H          -6.1151   -3.0120   -0.4712 H       1  LIG1        0.1437
     11 H          -4.7125   -3.8481   -0.4712 H       1  LIG1        0.1437
     12 C          -2.6845    1.5413   -0.0003 C.3     2  LIG2       -0.0681
     13 H          -3.3112    2.2468    0.5041 H       1  LIG1        0.1437
     14 H          -2.5273    1.8613   -1.0092 H       1  LIG1        0.0227
     15 H          -1.7430    1.4761    0.5040 H       1  LIG1        0.0227
     16 C          -4.8196    2.6153   -0.0003 C.ar    1  LIG1        0.1261
     17 C          -5.4065    1.3366   -0.0004 C.ar    1  LIG1        0.0411
     18 C          -6.7994    1.2424   -0.0003 C.ar    1  LIG1       -0.0394
     19 C          -7.5524    2.4178   -0.0003 C.ar    1  LIG1        0.0110
     20 C          -6.8736    3.6502   -0.0004 C.ar    1  LIG1        0.0842
     21 N          -5.5307    3.7594   -0.0003 N.ar    1  LIG1       -0.2311
     22 H          -7.2937    0.2606   -0.0014 H       1  LIG1        0.0632
     23 N          -3.5270    2.7543   -0.0003 N.pl3   1  LIG1       -0.3426
     24 H          -3.1083    1.9782   -0.4717 H       1  LIG1        0.0227
     25 H          -3.2830    3.6018   -0.4717 H       1  LIG1        0.1437
     26 C          -8.8523    2.3834   -0.0004 C.3     3  LIG3       -0.0681
     27 H          -9.1858    1.5006    0.5040 H       2  LIG2        0.0227
     28 H          -9.2088    2.3739   -1.0093 H       2  LIG2        0.0227
     29 H          -9.2320    3.2473    0.5039 H       1  LIG1        0.1437
     30 C          -8.9376    4.7719   -0.0001 C.ar    1  LIG1        0.1261
     31 C          -7.5307    4.7719   -0.0003 C.ar    1  LIG1        0.0411
     32 C          -6.8640    5.9985   -0.0001 C.ar    1  LIG1       -0.0394
     33 C          -7.6181    7.1732    0.0002 C.ar    1  LIG1        0.0110
     34 C          -9.0213    7.0704    0.0002 C.ar    1  LIG1        0.0841
     35 N          -9.6808    5.8955    0.0002 N.ar    1  LIG1       -0.2311
     36 H          -5.7655    6.0382   -0.0012 H       1  LIG1        0.0632
     37 N          -9.6032    3.6552   -0.0002 N.pl3   1  LIG1       -0.3426
     38 H         -10.4752    3.7869   -0.4716 H       1  LIG1        0.1437
     39 H          -9.0726    2.9509   -0.4716 H       2  LIG2        0.0227
     40 C          -7.0446    8.3402    0.0002 C.3     4  LIG4       -0.0681
     41 H          -7.6713    9.0456    0.5046 H       1  LIG1        0.1437
     42 H          -6.8873    8.6603   -1.0086 H       3  LIG3        0.0227
     43 H          -6.1032    8.2749    0.5046 H       3  LIG3        0.0227
     44 C          -9.1798    9.4141    0.0008 C.ar    1  LIG1        0.1254
     45 C          -9.7667    8.1355    0.0005 C.ar    1  LIG1        0.0408
     46 C         -11.1596    8.0413    0.0008 C.ar    1  LIG1       -0.0449
     47 C         -11.9126    9.2167    0.0012 C.ar    1  LIG1       -0.0316
     48 C         -11.2338   10.4491    0.0013 C.ar    1  LIG1        0.0326
     49 N          -9.8909   10.5583    0.0012 N.ar    1  LIG1       -0.2398
     50 H         -11.6539    7.0595   -0.0005 H       1  LIG1        0.0628
     51 H         -11.8909   11.5707    0.0018 H       1  LIG1        0.0833
     52 N          -7.8872    9.5532    0.0006 N.pl3   1  LIG1       -0.3426
     53 H          -7.4685    8.7770   -0.4708 H       3  LIG3        0.0227
     54 H          -7.6432   10.4006   -0.4709 H       1  LIG1        0.1437
     55 C         -13.2124    9.1822    0.0013 C.3     1  LIG1       -0.0383
     56 H         -13.5458    8.2995    0.5058 H       1  LIG1        0.0278
     57 H         -13.5691    9.1727   -1.0075 H       1  LIG1        0.0278
     58 H         -13.5920   10.0462    0.5057 H       1  LIG1        0.0278
@<TRIPOS>BOND
     1    28    26    1
     2    14    12    1
     3    42    40    1
     4    57    55    1
     5    25    23    1
     6    24    12    1
     7    39    26    1
     8    38    37    1
     9    11     9    1
    10    10     9    1
    11    54    52    1
    12    53    40    1
    13    22    18    1
    14    36    32    1
    15     7     3    1
    16    50    46    1
    17    17    18   ar
    18    17     5    1
    19    17    16   ar
    20    26    27    1
    21    20    19   ar
    22    20    31    1
    23    20    21   ar
    24    18    19   ar
    25    12    15    1
    26     5     6   ar
    27     5     4   ar
    28    31    30   ar
    29    31    32   ar
    30    16    21   ar
    31    16    23    1
    32    23    13    1
    33    37    30    1
    34    37    29    1
    35     6     1   ar
    36     4     3   ar
    37    30    35   ar
    38    32    33   ar
    39     1     2   ar
    40     1     9    1
    41     2     3   ar
    42     2     8    1
    43    35    34   ar
    44    34    33   ar
    45    34    45    1
    46    40    43    1
    47    45    46   ar
    48    45    44   ar
    49    52    44    1
    50    52    41    1
    51    46    47   ar
    52    44    49   ar
    53    47    48   ar
    54    47    55    1
    55    49    48   ar
    56    48    51    1
    57    55    58    1
    58    55    56    1
