@<TRIPOS>MOLECULE
mol_data/noopt/geoms/mol2/6hi6hi-6hi-6hi.out
 58 59 0 0 0
SMALL
GASTEIGER

@<TRIPOS>ATOM
      1 C          -4.5775   -2.0270    0.0001 C.ar    1  LIG1        0.1168
      2 C          -3.1706   -2.0270    0.0001 C.ar    1  LIG1       -0.0215
      3 C          -2.5039   -0.8004    0.0001 C.ar    1  LIG1       -0.0487
      4 C          -3.2580    0.3743   -0.0001 C.ar    1  LIG1        0.0104
      5 C          -4.6612    0.2715   -0.0003 C.ar    1  LIG1        0.0841
      6 N          -5.3207   -0.9034   -0.0001 N.ar    1  LIG1       -0.2317
      7 H          -1.4054   -0.7607   -0.0009 H       1  LIG1        0.0625
      8 H          -2.5135   -3.1487    0.0004 H       1  LIG1        0.0652
      9 N          -5.2431   -3.1437    0.0002 N.pl3   1  LIG1       -0.3431
     10 H          -6.1151   -3.0120   -0.4712 H       1  LIG1        0.1437
     11 H          -4.7125   -3.8481   -0.4712 H       1  LIG1        0.1437
     12 C          -2.6845    1.5413   -0.0003 C.3     2  LIG2       -0.0681
     13 H          -3.3112    2.2468    0.5041 H       1  LIG1        0.1437
     14 H          -2.5273    1.8613   -1.0092 H       1  LIG1        0.0227
     15 H          -1.7430    1.4761    0.5040 H       1  LIG1        0.0227
     16 C          -4.8196    2.6153   -0.0003 C.ar    1  LIG1        0.1261
     17 C          -5.4065    1.3366   -0.0004 C.ar    1  LIG1        0.0408
     18 C          -6.7994    1.2424   -0.0003 C.ar    1  LIG1       -0.0443
     19 C          -7.5524    2.4178   -0.0003 C.ar    1  LIG1       -0.0236
     20 C          -6.8736    3.6502   -0.0004 C.ar    1  LIG1        0.0793
     21 N          -5.5307    3.7594   -0.0003 N.ar    1  LIG1       -0.2314
     22 H          -7.2937    0.2606   -0.0014 H       1  LIG1        0.0628
     23 N          -3.5270    2.7543   -0.0003 N.pl3   1  LIG1       -0.3426
     24 H          -3.1083    1.9782   -0.4717 H       1  LIG1        0.0227
     25 H          -3.2830    3.6018   -0.4717 H       1  LIG1        0.1437
     26 C          -8.8523    2.3834   -0.0004 C.3     1  LIG1       -0.0377
     27 H          -9.1858    1.5006    0.5040 H       1  LIG1        0.0278
     28 H          -9.2088    2.3739   -1.0093 H       1  LIG1        0.0278
     29 H          -9.2320    3.2473    0.5039 H       1  LIG1        0.0278
     30 C          -6.8427    5.9991   -0.0000 C.ar    1  LIG1        0.1261
     31 C          -7.5307    4.7719   -0.0003 C.ar    1  LIG1        0.0408
     32 C          -8.9267    4.7902   -0.0001 C.ar    1  LIG1       -0.0394
     33 C          -9.5826    6.0224    0.0002 C.ar    1  LIG1        0.0110
     34 C          -8.8067    7.1961    0.0002 C.ar    1  LIG1        0.0841
     35 N          -7.4594    7.1968    0.0002 N.ar    1  LIG1       -0.2311
     36 H          -9.4985    3.8514   -0.0012 H       1  LIG1        0.0632
     37 N          -5.5432    6.0336   -0.0001 N.pl3   1  LIG1       -0.3426
     38 H          -5.1884    5.2262   -0.4716 H       1  LIG1        0.1437
     39 H          -5.2317    6.8586   -0.4716 H       1  LIG1        0.1437
     40 C         -10.8810    6.0928    0.0002 C.3     3  LIG3       -0.0681
     41 H         -11.2845    5.2397    0.5046 H       2  LIG2        0.0227
     42 H         -11.2372    6.1120   -1.0087 H       2  LIG2        0.0227
     43 H         -11.1898    6.9845    0.5045 H       1  LIG1        0.1437
     44 C         -10.7737    8.4804    0.0008 C.ar    1  LIG1        0.1254
     45 C          -9.3714    8.3671    0.0005 C.ar    1  LIG1        0.0408
     46 C          -8.6080    9.5360    0.0008 C.ar    1  LIG1       -0.0449
     47 C          -9.2650   10.7676    0.0012 C.ar    1  LIG1       -0.0316
     48 C         -10.6720   10.7782    0.0013 C.ar    1  LIG1        0.0326
     49 N         -11.4240    9.6602    0.0012 N.ar    1  LIG1       -0.2398
     50 H          -7.5099    9.4871   -0.0004 H       1  LIG1        0.0628
     51 H         -11.3291   11.8999    0.0018 H       1  LIG1        0.0833
     52 N         -11.5271    7.4209    0.0006 N.pl3   1  LIG1       -0.3426
     53 H         -12.3856    7.6226   -0.4709 H       1  LIG1        0.1437
     54 H         -11.0548    6.6762   -0.4709 H       2  LIG2        0.0227
     55 C          -8.5994   11.8846    0.0014 C.3     1  LIG1       -0.0383
     56 H          -9.1673   12.6382    0.5058 H       1  LIG1        0.0278
     57 H          -8.4168   12.1911   -1.0074 H       1  LIG1        0.0278
     58 H          -7.6663   11.7437    0.5058 H       1  LIG1        0.0278
@<TRIPOS>BOND
     1    28    26    1
     2    14    12    1
     3    42    40    1
     4    57    55    1
     5    25    23    1
     6    24    12    1
     7    39    37    1
     8    38    37    1
     9    11     9    1
    10    10     9    1
    11    54    40    1
    12    53    52    1
    13    22    18    1
    14    36    32    1
    15     7     3    1
    16    50    46    1
    17    17    18   ar
    18    17     5    1
    19    17    16   ar
    20    26    19    1
    21    26    29    1
    22    26    27    1
    23    20    19   ar
    24    20    31    1
    25    20    21   ar
    26    18    19   ar
    27    12    15    1
    28     5     6   ar
    29     5     4   ar
    30    31    32   ar
    31    31    30   ar
    32    16    21   ar
    33    16    23    1
    34    23    13    1
    35    37    30    1
    36     6     1   ar
    37     4     3   ar
    38    32    33   ar
    39    30    35   ar
    40     1     2   ar
    41     1     9    1
    42     2     3   ar
    43     2     8    1
    44    33    34   ar
    45    40    41    1
    46    34    35   ar
    47    34    45    1
    48    45    44   ar
    49    45    46   ar
    50    52    44    1
    51    52    43    1
    52    44    49   ar
    53    46    47   ar
    54    49    48   ar
    55    47    48   ar
    56    47    55    1
    57    48    51    1
    58    55    58    1
    59    55    56    1
