@<TRIPOS>MOLECULE
mol_data/noopt/geoms/mol2/6hi6hi6hi6hi-.out
 58 60 0 0 0
SMALL
GASTEIGER

@<TRIPOS>ATOM
      1 C          -4.5775   -2.0270    0.0001 C.ar    1  LIG1        0.1168
      2 C          -3.1706   -2.0270    0.0001 C.ar    1  LIG1       -0.0218
      3 C          -2.5039   -0.8004    0.0001 C.ar    1  LIG1       -0.0536
      4 C          -3.2580    0.3743   -0.0001 C.ar    1  LIG1       -0.0242
      5 C          -4.6612    0.2715   -0.0003 C.ar    1  LIG1        0.0793
      6 N          -5.3207   -0.9034   -0.0001 N.ar    1  LIG1       -0.2321
      7 H          -1.4054   -0.7607   -0.0009 H       1  LIG1        0.0622
      8 H          -2.5135   -3.1487    0.0004 H       1  LIG1        0.0652
      9 N          -5.2431   -3.1437    0.0002 N.pl3   1  LIG1       -0.3431
     10 H          -6.1151   -3.0120   -0.4712 H       1  LIG1        0.1437
     11 H          -4.7125   -3.8481   -0.4712 H       1  LIG1        0.1437
     12 C          -2.6845    1.5413   -0.0003 C.3     1  LIG1       -0.0377
     13 H          -3.3112    2.2468    0.5041 H       1  LIG1        0.0278
     14 H          -2.5273    1.8613   -1.0092 H       1  LIG1        0.0278
     15 H          -1.7430    1.4761    0.5040 H       1  LIG1        0.0278
     16 C          -6.8088    1.2233   -0.0003 C.ar    1  LIG1        0.1261
     17 C          -5.4065    1.3366   -0.0004 C.ar    1  LIG1        0.0405
     18 C          -4.8408    2.6129   -0.0003 C.ar    1  LIG1       -0.0443
     19 C          -5.6871    3.7231   -0.0003 C.ar    1  LIG1       -0.0236
     20 C          -7.0774    3.5076   -0.0004 C.ar    1  LIG1        0.0793
     21 N          -7.6401    2.2834   -0.0003 N.ar    1  LIG1       -0.2314
     22 H          -3.7491    2.7410   -0.0014 H       1  LIG1        0.0628
     23 N          -7.3823    0.0566   -0.0003 N.pl3   1  LIG1       -0.3426
     24 H          -8.2621    0.1177   -0.4717 H       1  LIG1        0.1437
     25 H          -6.7967   -0.6027   -0.4717 H       1  LIG1        0.1437
     26 C          -5.2094    4.9325   -0.0004 C.3     1  LIG1       -0.0377
     27 H          -5.8909    5.5852    0.5040 H       1  LIG1        0.0278
     28 H          -5.0784    5.2642   -1.0092 H       1  LIG1        0.0278
     29 H          -4.2658    4.9433    0.5040 H       1  LIG1        0.0278
     30 C          -9.2948    4.2833   -0.0001 C.ar    1  LIG1        0.1261
     31 C          -7.9061    4.5092   -0.0003 C.ar    1  LIG1        0.0408
     32 C          -7.4450    5.8270   -0.0001 C.ar    1  LIG1       -0.0394
     33 C          -8.3780    6.8653    0.0002 C.ar    1  LIG1        0.0110
     34 C          -9.7465    6.5385    0.0002 C.ar    1  LIG1        0.0841
     35 N         -10.2087    5.2730    0.0002 N.ar    1  LIG1       -0.2311
     36 H          -6.3672    6.0425   -0.0012 H       1  LIG1        0.0632
     37 N          -9.7724    3.0742   -0.0002 N.pl3   1  LIG1       -0.3426
     38 H         -10.6542    3.0642   -0.4716 H       1  LIG1        0.1437
     39 H          -9.1355    2.4643   -0.4716 H       1  LIG1        0.1437
     40 C          -7.9993    8.1093    0.0002 C.3     2  LIG2       -0.0681
     41 H          -8.7311    8.7049    0.5046 H       1  LIG1        0.1437
     42 H          -7.8954    8.4505   -1.0087 H       1  LIG1        0.0227
     43 H          -7.0596    8.1960    0.5046 H       1  LIG1        0.0227
     44 C         -10.2792    8.8264    0.0008 C.ar    1  LIG1        0.1254
     45 C         -10.6531    7.4702    0.0005 C.ar    1  LIG1        0.0408
     46 C         -12.0128    7.1535    0.0008 C.ar    1  LIG1       -0.0449
     47 C         -12.9448    8.1927    0.0012 C.ar    1  LIG1       -0.0316
     48 C         -12.4727    9.5181    0.0013 C.ar    1  LIG1        0.0326
     49 N         -11.1648    9.8416    0.0012 N.ar    1  LIG1       -0.2398
     50 H         -12.3431    6.1051   -0.0005 H       1  LIG1        0.0628
     51 H         -13.3014   10.5197    0.0018 H       1  LIG1        0.0833
     52 N          -9.0257    9.1713    0.0006 N.pl3   1  LIG1       -0.3426
     53 H          -8.4878    8.4724   -0.4708 H       1  LIG1        0.0227
     54 H          -8.9209   10.0469   -0.4709 H       1  LIG1        0.1437
     55 C         -14.2223    7.9500    0.0013 C.3     1  LIG1       -0.0383
     56 H         -14.4096    7.0252    0.5058 H       1  LIG1        0.0278
     57 H         -14.5728    7.8833   -1.0075 H       1  LIG1        0.0278
     58 H         -14.7357    8.7418    0.5057 H       1  LIG1        0.0278
@<TRIPOS>BOND
     1    28    26    1
     2    14    12    1
     3    42    40    1
     4    57    55    1
     5    25    23    1
     6    24    23    1
     7    39    37    1
     8    38    37    1
     9    11     9    1
    10    10     9    1
    11    54    52    1
    12    53    40    1
    13    22    18    1
    14    36    32    1
    15     7     3    1
    16    50    46    1
    17    17     5    1
    18    17    16   ar
    19    17    18   ar
    20    20    21   ar
    21    20    31    1
    22    20    19   ar
    23    26    19    1
    24    26    29    1
    25    26    27    1
    26    12     4    1
    27    12    15    1
    28    12    13    1
    29     5     6   ar
    30     5     4   ar
    31    16    23    1
    32    16    21   ar
    33    18    19   ar
    34    31    30   ar
    35    31    32   ar
    36    37    30    1
    37     6     1   ar
    38     4     3   ar
    39    30    35   ar
    40    32    33   ar
    41     1     2   ar
    42     1     9    1
    43     2     3   ar
    44     2     8    1
    45    35    34   ar
    46    34    33   ar
    47    34    45    1
    48    40    43    1
    49    45    46   ar
    50    45    44   ar
    51    52    44    1
    52    52    41    1
    53    46    47   ar
    54    44    49   ar
    55    47    48   ar
    56    47    55    1
    57    49    48   ar
    58    48    51    1
    59    55    58    1
    60    55    56    1
