@<TRIPOS>MOLECULE
mol_data/noopt/geoms/mol2/6hi6hd-4hf-4hi.out
 56 58 0 0 0
SMALL
GASTEIGER

@<TRIPOS>ATOM
      1 C          -4.5775   -2.0270    0.0001 C.ar    1  LIG1        0.1168
      2 C          -3.1706   -2.0270    0.0001 C.ar    1  LIG1       -0.0218
      3 C          -2.5039   -0.8004    0.0001 C.ar    1  LIG1       -0.0536
      4 C          -3.2580    0.3743   -0.0001 C.ar    1  LIG1       -0.0242
      5 C          -4.6612    0.2715   -0.0003 C.ar    1  LIG1        0.0793
      6 N          -5.3207   -0.9034   -0.0001 N.ar    1  LIG1       -0.2321
      7 H          -1.4054   -0.7607   -0.0009 H       1  LIG1        0.0622
      8 H          -2.5135   -3.1487    0.0004 H       1  LIG1        0.0652
      9 N          -5.2431   -3.1437    0.0002 N.pl3   1  LIG1       -0.3431
     10 H          -6.1151   -3.0120   -0.4712 H       1  LIG1        0.1437
     11 H          -4.7125   -3.8481   -0.4712 H       1  LIG1        0.1437
     12 C          -2.6845    1.5413   -0.0003 C.3     1  LIG1       -0.0377
     13 H          -3.3112    2.2468    0.5041 H       1  LIG1        0.0278
     14 H          -2.5273    1.8613   -1.0092 H       1  LIG1        0.0278
     15 H          -1.7430    1.4761    0.5040 H       1  LIG1        0.0278
     16 C          -6.8087    1.2234   -0.0215 C.ar    1  LIG1        0.1261
     17 C          -5.4065    1.3366   -0.0004 C.ar    1  LIG1        0.0405
     18 C          -4.8409    2.6128    0.0206 C.ar    1  LIG1       -0.0437
     19 C          -5.6872    3.7230    0.0196 C.ar    1  LIG1       -0.0163
     20 C          -7.0774    3.5076   -0.0025 C.ar    1  LIG1        0.0785
     21 N          -7.6400    2.2835   -0.0227 N.ar    1  LIG1       -0.2314
     22 H          -3.7493    2.7408    0.0363 H       1  LIG1        0.0629
     23 N          -7.3820    0.0568   -0.0413 N.pl3   1  LIG1       -0.3426
     24 H          -8.2587    0.1243   -0.5178 H       1  LIG1        0.1437
     25 H          -6.7931   -0.5960   -0.5178 H       1  LIG1        0.1437
     26 N          -4.7887    5.9983    0.0550 N.3     2  LIG2        0.0000
     27 C          -5.2098    4.9320    0.0384 C.3     1  LIG1        0.0011
     28 C          -7.4121    5.8296    0.0169 C.ar    1  LIG1        0.0543
     29 C          -8.3505    6.8797    0.0156 C.ar    1  LIG1       -0.0275
     30 C          -7.9061    4.5092   -0.0043 C.ar    1  LIG1        0.0264
     31 C          -9.7206    6.6286   -0.0064 C.ar    1  LIG1        0.0271
     32 H          -7.9910    7.9061    0.0319 H       1  LIG1        0.0644
     33 C          -9.2737    4.2579   -0.0262 C.ar    1  LIG1       -0.0086
     34 C         -10.1901    5.3147   -0.0276 C.ar    1  LIG1        0.1253
     35 H          -9.6297    3.2310   -0.0422 H       1  LIG1        0.0661
     36 N          -6.1467    6.1266    0.0377 N.pl3   1  LIG1       -0.2659
     37 H          -5.6283    5.4096   -0.4284 H       1  LIG1        0.0362
     38 H          -6.0014    6.9993   -0.4284 H       1  LIG1        0.1699
     39 O         -11.4675    5.0737   -0.0480 O.3     1  LIG1       -0.5061
     40 H         -11.6146    4.1251   -0.0530 H       1  LIG1        0.2922
     41 C         -10.0777    8.9473   -0.0066 C.ar    1  LIG1        0.0325
     42 C         -11.0262    9.9882   -0.0058 C.ar    1  LIG1       -0.0402
     43 C         -10.5589    7.6221   -0.0070 C.ar    1  LIG1        0.0065
     44 C         -12.3939    9.7237   -0.0060 C.ar    1  LIG1       -0.0571
     45 H         -10.6766   11.0182   -0.0053 H       1  LIG1        0.0636
     46 C         -11.9242    7.3574   -0.0073 C.ar    1  LIG1       -0.0492
     47 C         -12.8509    8.4052   -0.0068 C.ar    1  LIG1       -0.0498
     48 H         -12.2704    6.3270   -0.0075 H       1  LIG1        0.0627
     49 H         -13.2419   10.7091   -0.0054 H       1  LIG1        0.0621
     50 N          -8.8150    9.2567   -0.0067 N.pl3   1  LIG1       -0.3575
     51 H          -8.2970    8.5430   -0.4781 H       1  LIG1        0.1423
     52 H          -8.6856   10.1290   -0.4781 H       1  LIG1        0.1423
     53 C         -14.1262    8.1517   -0.0069 C.3     1  LIG1       -0.0397
     54 H         -14.3058    7.2253    0.4975 H       1  LIG1        0.0278
     55 H         -14.4761    8.0821   -1.0157 H       1  LIG1        0.0278
     56 H         -14.6464    8.9391    0.4975 H       1  LIG1        0.0278
@<TRIPOS>BOND
     1    55    53    1
     2    14    12    1
     3    25    23    1
     4    24    23    1
     5    52    50    1
     6    51    50    1
     7    11     9    1
     8    10     9    1
     9    38    36    1
    10    37    27    1
    11    40    39    1
    12    39    34    1
    13    35    33    1
    14    23    16    1
    15    34    33   ar
    16    34    31   ar
    17    33    30   ar
    18    21    16   ar
    19    21    20   ar
    20    16    17   ar
    21    48    46    1
    22    46    43   ar
    23    46    47   ar
    24    43    41   ar
    25    43    31    1
    26    53    47    1
    27    53    56    1
    28    53    54    1
    29    47    44   ar
    30    50    41    1
    31    41    42   ar
    32    31    29   ar
    33    44    42   ar
    34    44    49    1
    35    42    45    1
    36    30    20    1
    37    30    28   ar
    38    20    19   ar
    39     7     3    1
    40    17     5    1
    41    17    18   ar
    42    12     4    1
    43    12    15    1
    44    12    13    1
    45     5     6   ar
    46     5     4   ar
    47     6     1   ar
    48     4     3   ar
    49     3     2   ar
    50     1     2   ar
    51     1     9    1
    52     2     8    1
    53    29    28   ar
    54    29    32    1
    55    28    36    1
    56    19    18   ar
    57    19    27    1
    58    18    22    1
