@<TRIPOS>MOLECULE
mol_data/noopt/geoms/mol2/6hi6hi-.out
 30 30 0 0 0
SMALL
GASTEIGER

@<TRIPOS>ATOM
      1 C          -4.5775   -2.0270    0.0001 C.ar    1  LIG1        0.1168
      2 C          -3.1706   -2.0270    0.0001 C.ar    1  LIG1       -0.0215
      3 C          -2.5039   -0.8004    0.0001 C.ar    1  LIG1       -0.0487
      4 C          -3.2580    0.3743   -0.0001 C.ar    1  LIG1        0.0104
      5 C          -4.6612    0.2715   -0.0003 C.ar    1  LIG1        0.0841
      6 N          -5.3207   -0.9034   -0.0001 N.ar    1  LIG1       -0.2317
      7 H          -1.4054   -0.7607   -0.0009 H       1  LIG1        0.0625
      8 H          -2.5135   -3.1487    0.0004 H       1  LIG1        0.0652
      9 N          -5.2431   -3.1437    0.0002 N.pl3   1  LIG1       -0.3431
     10 H          -6.1151   -3.0120   -0.4712 H       1  LIG1        0.1437
     11 H          -4.7125   -3.8481   -0.4712 H       1  LIG1        0.1437
     12 C          -2.6845    1.5413   -0.0003 C.3     2  LIG2       -0.0681
     13 H          -3.3112    2.2468    0.5041 H       1  LIG1        0.1437
     14 H          -2.5273    1.8613   -1.0092 H       1  LIG1        0.0227
     15 H          -1.7430    1.4761    0.5040 H       1  LIG1        0.0227
     16 C          -4.8196    2.6153   -0.0003 C.ar    1  LIG1        0.1254
     17 C          -5.4065    1.3366   -0.0004 C.ar    1  LIG1        0.0408
     18 C          -6.7994    1.2424   -0.0003 C.ar    1  LIG1       -0.0449
     19 C          -7.5524    2.4178   -0.0003 C.ar    1  LIG1       -0.0316
     20 C          -6.8736    3.6502   -0.0004 C.ar    1  LIG1        0.0326
     21 N          -5.5307    3.7594   -0.0003 N.ar    1  LIG1       -0.2398
     22 H          -7.2937    0.2606   -0.0014 H       1  LIG1        0.0628
     23 H          -7.5307    4.7719   -0.0003 H       1  LIG1        0.0833
     24 N          -3.5270    2.7543   -0.0003 N.pl3   1  LIG1       -0.3426
     25 H          -3.1083    1.9782   -0.4717 H       1  LIG1        0.0227
     26 H          -3.2830    3.6018   -0.4717 H       1  LIG1        0.1437
     27 C          -8.8523    2.3834   -0.0004 C.3     1  LIG1       -0.0383
     28 H          -9.1858    1.5006    0.5040 H       1  LIG1        0.0278
     29 H          -9.2088    2.3739   -1.0093 H       1  LIG1        0.0278
     30 H          -9.2320    3.2473    0.5039 H       1  LIG1        0.0278
@<TRIPOS>BOND
     1    29    27    1
     2    14    12    1
     3    26    24    1
     4    25    12    1
     5    11     9    1
     6    10     9    1
     7    22    18    1
     8     7     3    1
     9    17    18   ar
    10    17     5    1
    11    17    16   ar
    12    27    19    1
    13    27    30    1
    14    27    28    1
    15    20    19   ar
    16    20    23    1
    17    20    21   ar
    18    18    19   ar
    19    12    15    1
    20     5     6   ar
    21     5     4   ar
    22    16    21   ar
    23    16    24    1
    24    24    13    1
    25     6     1   ar
    26     4     3   ar
    27     1     2   ar
    28     1     9    1
    29     3     2   ar
    30     2     8    1
