@<TRIPOS>MOLECULE
mol_data/noopt/geoms/mol2/6hi6ae-12eh12la-.out
 49 49 0 0 0
SMALL
GASTEIGER

@<TRIPOS>ATOM
      1 C          -4.5775   -2.0270    0.0001 C.ar    1  LIG1        0.1168
      2 C          -3.1706   -2.0270    0.0001 C.ar    1  LIG1       -0.0218
      3 C          -2.5039   -0.8004    0.0001 C.ar    1  LIG1       -0.0536
      4 C          -3.2580    0.3743   -0.0001 C.ar    1  LIG1       -0.0246
      5 C          -4.6612    0.2715   -0.0003 C.ar    1  LIG1        0.0742
      6 N          -5.3207   -0.9034   -0.0001 N.ar    1  LIG1       -0.2324
      7 H          -1.4054   -0.7607   -0.0009 H       1  LIG1        0.0622
      8 H          -2.5135   -3.1487    0.0004 H       1  LIG1        0.0652
      9 N          -5.2431   -3.1437    0.0002 N.pl3   1  LIG1       -0.3431
     10 H          -6.1151   -3.0120   -0.4712 H       1  LIG1        0.1437
     11 H          -4.7125   -3.8481   -0.4712 H       1  LIG1        0.1437
     12 C          -2.6845    1.5413   -0.0003 C.3     1  LIG1       -0.0377
     13 H          -3.3112    2.2468    0.5041 H       1  LIG1        0.0278
     14 H          -2.5273    1.8613   -1.0092 H       1  LIG1        0.0278
     15 H          -1.7430    1.4761    0.5040 H       1  LIG1        0.0278
     16 C          -6.8087    1.2234   -0.0215 C.3     1  LIG1        0.1046
     17 C          -5.4065    1.3366   -0.0004 C.2     1  LIG1        0.0061
     18 C          -4.8409    2.6128    0.0206 C.2     1  LIG1       -0.0377
     19 C          -5.6872    3.7230    0.0196 C.2     1  LIG1        0.0427
     20 C          -7.0774    3.5076   -0.0025 C.2     1  LIG1        0.1045
     21 N          -7.6400    2.2835   -0.0227 N.2     1  LIG1       -0.2720
     22 H          -3.7493    2.7408    0.0363 H       1  LIG1        0.0634
     23 H          -7.3820    0.0568   -0.0413 H       1  LIG1        0.0620
     24 C          -5.2098    4.9320    0.0384 C.1     1  LIG1       -0.1095
     25 C          -4.7686    6.0491    0.0558 C.2     1  LIG1       -0.0112
     26 H          -4.3757    7.0442    0.0713 H       1  LIG1        0.0712
     27 C          -7.9061    4.5092   -0.0043 C.3     1  LIG1        0.2364
     28 C          -7.7875    5.8836   -0.0056 C.2     1  LIG1        0.0744
     29 C          -9.1341    6.4161   -0.0073 C.2     1  LIG1        0.1052
     30 C          -9.9866    5.3313   -0.0070 C.2     1  LIG1        0.1916
     31 O          -9.2531    4.1444   -0.0052 O.2     1  LIG1       -0.4635
     32 C          -6.6949    6.5880   -0.0053 C.1     1  LIG1       -0.1092
     33 C          -5.6853    7.2388   -0.0050 C.2     1  LIG1       -0.0114
     34 H          -4.7859    7.8186   -0.0047 H       1  LIG1        0.0712
     35 N          -9.4502    7.6771   -0.0088 N.pl3   1  LIG1       -0.2622
     36 H          -8.7391    8.1984   -0.4806 H       1  LIG1        0.1701
     37 H         -10.3231    7.8014   -0.4807 H       1  LIG1        0.0309
     38 C         -11.2761    5.1666   -0.0079 C.ar    1  LIG1        0.2174
     39 C         -12.3742    6.0017   -0.0086 C.ar    1  LIG1        0.2274
     40 C         -13.5442    5.1485   -0.0095 C.ar    1  LIG1        0.0238
     41 C         -13.0833    3.8481   -0.0094 C.ar    1  LIG1        0.0965
     42 O         -11.6881    3.8332   -0.0085 O.2     1  LIG1       -0.4558
     43 H         -13.6337    2.6703   -0.0099 H       1  LIG1        0.1031
     44 O         -12.3851    7.3017   -0.0084 O.3     1  LIG1       -0.2838
     45 C         -11.0412    7.7903   -0.0084 C.3     2  LIG2       -0.0309
     46 H         -11.0507    8.8603   -0.0084 H       3  UNK3        0.0000
     47 H         -10.5336    7.4382    0.8653 H       4  UNK4        0.0000
     48 H         -10.5336    7.4382   -0.8820 H       5  UNK5        0.0000
     49 H         -14.7788    5.5557   -0.0103 H       1  LIG1        0.0688
@<TRIPOS>BOND
     1    14    12    1
     2    37    45    1
     3    36    35    1
     4    11     9    1
     5    10     9    1
     6    23    16    1
     7    21    16    1
     8    21    20    2
     9    16    17    1
    10    49    40    1
    11    43    41    1
    12    40    41   ar
    13    40    39   ar
    14    41    42   ar
    15    35    29    1
    16    39    44    1
    17    39    38   ar
    18    42    38   ar
    19    38    30    1
    20    29    30    2
    21    29    28    1
    22    30    31    1
    23    28    32    2
    24    28    27    1
    25    32    33    2
    26    31    27    1
    27    33    34    1
    28    33    25    1
    29    27    20    1
    30    20    19    1
    31     7     3    1
    32    17     5    1
    33    17    18    2
    34     5     6   ar
    35     5     4   ar
    36    12     4    1
    37    12    15    1
    38    12    13    1
    39     6     1   ar
    40     4     3   ar
    41     1     2   ar
    42     1     9    1
    43     3     2   ar
    44     2     8    1
    45    19    18    1
    46    19    24    2
    47    18    22    1
    48    24    25    2
    49    25    26    1
