@<TRIPOS>MOLECULE
mol_data/noopt/geoms/mol2/6hi6hi-6hi.out
 44 44 0 0 0
SMALL
GASTEIGER

@<TRIPOS>ATOM
      1 C          -4.5775   -2.0270    0.0001 C.ar    1  LIG1        0.1168
      2 C          -3.1706   -2.0270    0.0001 C.ar    1  LIG1       -0.0215
      3 C          -2.5039   -0.8004    0.0001 C.ar    1  LIG1       -0.0487
      4 C          -3.2580    0.3743   -0.0001 C.ar    1  LIG1        0.0104
      5 C          -4.6612    0.2715   -0.0003 C.ar    1  LIG1        0.0841
      6 N          -5.3207   -0.9034   -0.0001 N.ar    1  LIG1       -0.2317
      7 H          -1.4054   -0.7607   -0.0009 H       1  LIG1        0.0625
      8 H          -2.5135   -3.1487    0.0004 H       1  LIG1        0.0652
      9 N          -5.2431   -3.1437    0.0002 N.pl3   1  LIG1       -0.3431
     10 H          -6.1151   -3.0120   -0.4712 H       1  LIG1        0.1437
     11 H          -4.7125   -3.8481   -0.4712 H       1  LIG1        0.1437
     12 C          -2.6845    1.5413   -0.0003 C.3     2  LIG2       -0.0681
     13 H          -3.3112    2.2468    0.5041 H       1  LIG1        0.1437
     14 H          -2.5273    1.8613   -1.0092 H       1  LIG1        0.0227
     15 H          -1.7430    1.4761    0.5040 H       1  LIG1        0.0227
     16 C          -4.8196    2.6153   -0.0003 C.ar    1  LIG1        0.1261
     17 C          -5.4065    1.3366   -0.0004 C.ar    1  LIG1        0.0411
     18 C          -6.7994    1.2424   -0.0003 C.ar    1  LIG1       -0.0394
     19 C          -7.5524    2.4178   -0.0003 C.ar    1  LIG1        0.0110
     20 C          -6.8736    3.6502   -0.0004 C.ar    1  LIG1        0.0841
     21 N          -5.5307    3.7594   -0.0003 N.ar    1  LIG1       -0.2311
     22 H          -7.2937    0.2606   -0.0014 H       1  LIG1        0.0632
     23 N          -3.5270    2.7543   -0.0003 N.pl3   1  LIG1       -0.3426
     24 H          -3.1083    1.9782   -0.4717 H       1  LIG1        0.0227
     25 H          -3.2830    3.6018   -0.4717 H       1  LIG1        0.1437
     26 C          -8.8523    2.3834   -0.0004 C.3     3  LIG3       -0.0681
     27 H          -9.1858    1.5006    0.5040 H       2  LIG2        0.0227
     28 H          -9.2088    2.3739   -1.0093 H       2  LIG2        0.0227
     29 H          -9.2320    3.2473    0.5039 H       1  LIG1        0.1437
     30 C          -8.9376    4.7719   -0.0001 C.ar    1  LIG1        0.1254
     31 C          -7.5307    4.7719   -0.0003 C.ar    1  LIG1        0.0408
     32 C          -6.8640    5.9985   -0.0001 C.ar    1  LIG1       -0.0449
     33 C          -7.6181    7.1732    0.0002 C.ar    1  LIG1       -0.0316
     34 C          -9.0213    7.0704    0.0002 C.ar    1  LIG1        0.0326
     35 N          -9.6808    5.8955    0.0002 N.ar    1  LIG1       -0.2398
     36 H          -5.7655    6.0382   -0.0012 H       1  LIG1        0.0628
     37 H          -9.7666    8.1355    0.0005 H       1  LIG1        0.0833
     38 N          -9.6032    3.6552   -0.0002 N.pl3   1  LIG1       -0.3426
     39 H         -10.4752    3.7869   -0.4716 H       1  LIG1        0.1437
     40 H          -9.0726    2.9509   -0.4716 H       2  LIG2        0.0227
     41 C          -7.0446    8.3402    0.0002 C.3     1  LIG1       -0.0383
     42 H          -7.6713    9.0456    0.5046 H       1  LIG1        0.0278
     43 H          -6.8873    8.6603   -1.0086 H       1  LIG1        0.0278
     44 H          -6.1032    8.2749    0.5046 H       1  LIG1        0.0278
@<TRIPOS>BOND
     1    28    26    1
     2    14    12    1
     3    43    41    1
     4    25    23    1
     5    24    12    1
     6    40    26    1
     7    39    38    1
     8    11     9    1
     9    10     9    1
    10    22    18    1
    11    36    32    1
    12     7     3    1
    13    17    18   ar
    14    17     5    1
    15    17    16   ar
    16    26    27    1
    17    20    19   ar
    18    20    31    1
    19    20    21   ar
    20    18    19   ar
    21    12    15    1
    22     5     6   ar
    23     5     4   ar
    24    31    30   ar
    25    31    32   ar
    26    16    21   ar
    27    16    23    1
    28    23    13    1
    29    38    30    1
    30    38    29    1
    31     6     1   ar
    32     4     3   ar
    33    30    35   ar
    34    32    33   ar
    35     1     2   ar
    36     1     9    1
    37     3     2   ar
    38     2     8    1
    39    35    34   ar
    40    34    33   ar
    41    34    37    1
    42    33    41    1
    43    41    44    1
    44    41    42    1
