@<TRIPOS>MOLECULE
mol_data/noopt/geoms/mol2/6hi6ai-12fa6fa.out
 46 48 0 0 0
SMALL
GASTEIGER

@<TRIPOS>ATOM
      1 C          -4.5775   -2.0270    0.0001 C.ar    1  LIG1        0.1168
      2 C          -3.1706   -2.0270    0.0001 C.ar    1  LIG1       -0.0218
      3 C          -2.5039   -0.8004    0.0001 C.ar    1  LIG1       -0.0536
      4 C          -3.2580    0.3743   -0.0001 C.ar    1  LIG1       -0.0243
      5 C          -4.6612    0.2715   -0.0003 C.ar    1  LIG1        0.0774
      6 N          -5.3207   -0.9034   -0.0001 N.ar    1  LIG1       -0.2321
      7 H          -1.4054   -0.7607   -0.0009 H       1  LIG1        0.0622
      8 H          -2.5135   -3.1487    0.0004 H       1  LIG1        0.0652
      9 N          -5.2431   -3.1437    0.0002 N.pl3   1  LIG1       -0.3431
     10 H          -6.1151   -3.0120   -0.4712 H       1  LIG1        0.1437
     11 H          -4.7125   -3.8481   -0.4712 H       1  LIG1        0.1437
     12 C          -2.6845    1.5413   -0.0003 C.3     1  LIG1       -0.0377
     13 H          -3.3112    2.2468    0.5041 H       1  LIG1        0.0278
     14 H          -2.5273    1.8613   -1.0092 H       1  LIG1        0.0278
     15 H          -1.7430    1.4761    0.5040 H       1  LIG1        0.0278
     16 C          -6.8087    1.2234   -0.0215 C.ar    1  LIG1        0.0374
     17 C          -5.4065    1.3366   -0.0004 C.ar    1  LIG1        0.0190
     18 C          -4.8409    2.6128    0.0206 C.ar    1  LIG1       -0.0462
     19 C          -5.6872    3.7230    0.0196 C.ar    1  LIG1       -0.0237
     20 C          -7.0774    3.5076   -0.0025 C.ar    1  LIG1        0.0781
     21 N          -7.6400    2.2835   -0.0227 N.ar    1  LIG1       -0.2539
     22 H          -3.7493    2.7408    0.0363 H       1  LIG1        0.0628
     23 H          -7.3820    0.0568   -0.0413 H       1  LIG1        0.0836
     24 C          -5.2097    4.9323    0.0384 C.3     1  LIG1       -0.0377
     25 H          -5.8939    5.5781    0.5479 H       1  LIG1        0.0278
     26 H          -5.0734    5.2776   -0.9652 H       1  LIG1        0.0278
     27 H          -4.2687    4.9363    0.5479 H       1  LIG1        0.0278
     28 C          -7.9061    4.5092   -0.0043 C.2     1  LIG1        0.0548
     29 C          -7.7875    5.8836   -0.0056 C.2     1  LIG1        0.1304
     30 C          -9.1341    6.4161   -0.0073 C.2     1  LIG1        0.0280
     31 C          -9.9866    5.3313   -0.0070 C.2     1  LIG1        0.1946
     32 O          -9.2531    4.1444   -0.0052 O.2     1  LIG1       -0.2870
     33 O          -6.6948    6.5880   -0.0053 O.2     1  LIG1       -0.5060
     34 H          -6.9159    7.5222   -0.0052 H       1  LIG1        0.2922
     35 H          -9.4502    7.6771   -0.0088 H       1  LIG1        0.0693
     36 C         -11.8278    3.8724   -0.0082 C.ar    1  LIG1        0.2234
     37 C         -11.2761    5.1666   -0.0079 C.ar    1  LIG1        0.0830
     38 C         -12.1431    6.2609   -0.0082 C.ar    1  LIG1       -0.0444
     39 C         -13.5194    6.0277   -0.0091 C.ar    1  LIG1       -0.0427
     40 C         -13.9750    4.6966   -0.0096 C.ar    1  LIG1        0.0314
     41 N         -13.1528    3.6292   -0.0091 N.ar    1  LIG1       -0.2208
     42 H         -11.7489    7.2870   -0.0090 H       1  LIG1        0.0627
     43 H         -15.2471    4.4286   -0.0103 H       1  LIG1        0.0831
     44 O         -11.0615    2.8222   -0.0078 O.3     1  LIG1       -0.4919
     45 H         -10.1416    3.0968   -0.0077 H       1  LIG1        0.2937
     46 H         -14.3679    7.0127   -0.0097 H       1  LIG1        0.0633
@<TRIPOS>BOND
     1    14    12    1
     2    26    24    1
     3    11     9    1
     4    10     9    1
     5    23    16    1
     6    21    16   ar
     7    21    20   ar
     8    16    17   ar
     9    43    40    1
    10    46    39    1
    11    40    39   ar
    12    40    41   ar
    13    39    38   ar
    14    41    36   ar
    15    42    38    1
    16    35    30    1
    17    38    37   ar
    18    36    37   ar
    19    36    44    1
    20    37    31    1
    21    44    45    1
    22    30    31    2
    23    30    29    1
    24    31    32    1
    25    29    33    1
    26    29    28    2
    27    33    34    1
    28    28    20    1
    29    20    19   ar
    30     7     3    1
    31    17     5    1
    32    17    18   ar
    33    12     4    1
    34    12    15    1
    35    12    13    1
    36     5     6   ar
    37     5     4   ar
    38     6     1   ar
    39     4     3   ar
    40     1     2   ar
    41     1     9    1
    42     3     2   ar
    43     2     8    1
    44    19    18   ar
    45    19    24    1
    46    18    22    1
    47    24    27    1
    48    24    25    1
