@<TRIPOS>MOLECULE
mol_data/noopt/geoms/mol2/6hi6hi-4hi6hi.out
 59 60 0 0 0
SMALL
GASTEIGER

@<TRIPOS>ATOM
      1 C          -4.5775   -2.0270    0.0001 C.ar    1  LIG1        0.1168
      2 C          -3.1706   -2.0270    0.0001 C.ar    1  LIG1       -0.0215
      3 C          -2.5039   -0.8004    0.0001 C.ar    1  LIG1       -0.0487
      4 C          -3.2580    0.3743   -0.0001 C.ar    1  LIG1        0.0104
      5 C          -4.6612    0.2715   -0.0003 C.ar    1  LIG1        0.0841
      6 N          -5.3207   -0.9034   -0.0001 N.ar    1  LIG1       -0.2317
      7 H          -1.4054   -0.7607   -0.0009 H       1  LIG1        0.0625
      8 H          -2.5135   -3.1487    0.0004 H       1  LIG1        0.0652
      9 N          -5.2431   -3.1437    0.0002 N.pl3   1  LIG1       -0.3431
     10 H          -6.1151   -3.0120   -0.4712 H       1  LIG1        0.1437
     11 H          -4.7125   -3.8481   -0.4712 H       1  LIG1        0.1437
     12 C          -2.6845    1.5413   -0.0003 C.3     2  LIG2       -0.0681
     13 H          -3.3112    2.2468    0.5041 H       1  LIG1        0.1437
     14 H          -2.5273    1.8613   -1.0092 H       1  LIG1        0.0227
     15 H          -1.7430    1.4761    0.5040 H       1  LIG1        0.0227
     16 C          -4.8196    2.6153   -0.0003 C.ar    1  LIG1        0.1261
     17 C          -5.4065    1.3366   -0.0004 C.ar    1  LIG1        0.0408
     18 C          -6.7994    1.2424   -0.0003 C.ar    1  LIG1       -0.0443
     19 C          -7.5524    2.4178   -0.0003 C.ar    1  LIG1       -0.0237
     20 C          -6.8736    3.6502   -0.0004 C.ar    1  LIG1        0.0778
     21 N          -5.5307    3.7594   -0.0003 N.ar    1  LIG1       -0.2314
     22 H          -7.2937    0.2606   -0.0014 H       1  LIG1        0.0628
     23 N          -3.5270    2.7543   -0.0003 N.pl3   1  LIG1       -0.3426
     24 H          -3.1083    1.9782   -0.4717 H       1  LIG1        0.0227
     25 H          -3.2830    3.6018   -0.4717 H       1  LIG1        0.1437
     26 C          -8.8523    2.3834   -0.0004 C.3     1  LIG1       -0.0377
     27 H          -9.1858    1.5006    0.5040 H       1  LIG1        0.0278
     28 H          -9.2088    2.3739   -1.0093 H       1  LIG1        0.0278
     29 H          -9.2320    3.2473    0.5039 H       1  LIG1        0.0278
     30 C          -6.8310    5.9958    0.0005 C.ar    1  LIG1        0.0345
     31 C          -7.5886    7.1830    0.0022 C.ar    1  LIG1       -0.0320
     32 C          -7.5307    4.7718   -0.0003 C.ar    1  LIG1        0.0219
     33 C          -8.9814    7.1551    0.0023 C.ar    1  LIG1       -0.0051
     34 H          -7.0688    8.1385    0.0030 H       1  LIG1        0.0642
     35 C          -8.9211    4.7434   -0.0001 C.ar    1  LIG1       -0.0425
     36 C          -9.6560    5.9336    0.0011 C.ar    1  LIG1       -0.0087
     37 H          -9.4376    3.7869   -0.0006 H       1  LIG1        0.0631
     38 N          -5.5341    6.0859    0.0002 N.pl3   1  LIG1       -0.3574
     39 H          -5.1452    5.2944   -0.4713 H       1  LIG1        0.1423
     40 H          -5.2583    6.9235   -0.4714 H       1  LIG1        0.1423
     41 C         -10.9559    5.9008    0.0014 C.3     3  LIG3       -0.0681
     42 H         -11.2903    5.0184    0.5060 H       2  LIG2        0.0227
     43 H         -11.3127    5.8917   -1.0073 H       2  LIG2        0.0227
     44 H         -11.3343    6.7652    0.5059 H       1  LIG1        0.1437
     45 C         -11.0562    8.2567    0.0047 C.ar    1  LIG1        0.1239
     46 C          -9.6493    8.2703    0.0037 C.ar    1  LIG1        0.0225
     47 C          -8.9946    9.5034    0.0047 C.ar    1  LIG1       -0.0464
     48 C          -9.7600   10.6707    0.0063 C.ar    1  LIG1       -0.0316
     49 C         -11.1621   10.5543    0.0069 C.ar    1  LIG1        0.0326
     50 N         -11.8102    9.3730    0.0062 N.ar    1  LIG1       -0.2398
     51 H          -7.8965    9.5537    0.0030 H       1  LIG1        0.0628
     52 H         -11.9177   11.6121    0.0085 H       1  LIG1        0.0833
     53 N         -11.7109    7.1336    0.0040 N.pl3   1  LIG1       -0.3427
     54 H         -12.5840    7.2571   -0.4676 H       1  LIG1        0.1437
     55 H         -11.1733    6.4347   -0.4677 H       2  LIG2        0.0227
     56 C          -9.1978   11.8432    0.0071 C.3     1  LIG1       -0.0383
     57 H          -9.8315   12.5423    0.5117 H       1  LIG1        0.0278
     58 H          -9.0434   12.1654   -1.0016 H       1  LIG1        0.0278
     59 H          -8.2559   11.7868    0.5116 H       1  LIG1        0.0278
@<TRIPOS>BOND
     1    28    26    1
     2    14    12    1
     3    43    41    1
     4    58    56    1
     5    25    23    1
     6    24    12    1
     7    40    38    1
     8    39    38    1
     9    11     9    1
    10    10     9    1
    11    55    41    1
    12    54    53    1
    13    22    18    1
    14     7     3    1
    15    37    35    1
    16    17    18   ar
    17    17     5    1
    18    17    16   ar
    19    26    19    1
    20    26    29    1
    21    26    27    1
    22    20    19   ar
    23    20    32    1
    24    20    21   ar
    25    18    19   ar
    26    12    15    1
    27     5     6   ar
    28     5     4   ar
    29    32    35   ar
    30    32    30   ar
    31    16    21   ar
    32    16    23    1
    33    23    13    1
    34     6     1   ar
    35     4     3   ar
    36    35    36   ar
    37     1     2   ar
    38     1     9    1
    39     3     2   ar
    40     2     8    1
    41    38    30    1
    42    30    31   ar
    43    36    33   ar
    44    41    42    1
    45    31    33   ar
    46    31    34    1
    47    33    46    1
    48    51    47    1
    49    46    45   ar
    50    46    47   ar
    51    53    45    1
    52    53    44    1
    53    45    50   ar
    54    47    48   ar
    55    50    49   ar
    56    48    49   ar
    57    48    56    1
    58    49    52    1
    59    56    59    1
    60    56    57    1
