@<TRIPOS>MOLECULE
mol_data/noopt/geoms/mol2/6hi6hi6hi-6hi-.out
 58 60 0 0 0
SMALL
GASTEIGER

@<TRIPOS>ATOM
      1 C          -4.5775   -2.0270    0.0001 C.ar    1  LIG1        0.1168
      2 C          -3.1706   -2.0270    0.0001 C.ar    1  LIG1       -0.0218
      3 C          -2.5039   -0.8004    0.0001 C.ar    1  LIG1       -0.0536
      4 C          -3.2580    0.3743   -0.0001 C.ar    1  LIG1       -0.0242
      5 C          -4.6612    0.2715   -0.0003 C.ar    1  LIG1        0.0793
      6 N          -5.3207   -0.9034   -0.0001 N.ar    1  LIG1       -0.2321
      7 H          -1.4054   -0.7607   -0.0009 H       1  LIG1        0.0622
      8 H          -2.5135   -3.1487    0.0004 H       1  LIG1        0.0652
      9 N          -5.2431   -3.1437    0.0002 N.pl3   1  LIG1       -0.3431
     10 H          -6.1151   -3.0120   -0.4712 H       1  LIG1        0.1437
     11 H          -4.7125   -3.8481   -0.4712 H       1  LIG1        0.1437
     12 C          -2.6845    1.5413   -0.0003 C.3     1  LIG1       -0.0377
     13 H          -3.3112    2.2468    0.5041 H       1  LIG1        0.0278
     14 H          -2.5273    1.8613   -1.0092 H       1  LIG1        0.0278
     15 H          -1.7430    1.4761    0.5040 H       1  LIG1        0.0278
     16 C          -6.8088    1.2233   -0.0003 C.ar    1  LIG1        0.1261
     17 C          -5.4065    1.3366   -0.0004 C.ar    1  LIG1        0.0408
     18 C          -4.8408    2.6129   -0.0003 C.ar    1  LIG1       -0.0394
     19 C          -5.6871    3.7231   -0.0003 C.ar    1  LIG1        0.0110
     20 C          -7.0774    3.5076   -0.0004 C.ar    1  LIG1        0.0841
     21 N          -7.6401    2.2834   -0.0003 N.ar    1  LIG1       -0.2311
     22 H          -3.7491    2.7410   -0.0014 H       1  LIG1        0.0632
     23 N          -7.3823    0.0566   -0.0003 N.pl3   1  LIG1       -0.3426
     24 H          -8.2621    0.1177   -0.4717 H       1  LIG1        0.1437
     25 H          -6.7967   -0.6027   -0.4717 H       1  LIG1        0.1437
     26 C          -5.2094    4.9325   -0.0004 C.3     2  LIG2       -0.0681
     27 H          -5.8909    5.5852    0.5040 H       1  LIG1        0.1437
     28 H          -5.0784    5.2642   -1.0092 H       1  LIG1        0.0227
     29 H          -4.2658    4.9433    0.5040 H       1  LIG1        0.0227
     30 C          -7.4241    5.8310   -0.0000 C.ar    1  LIG1        0.1261
     31 C          -7.9061    4.5092   -0.0003 C.ar    1  LIG1        0.0408
     32 C          -9.2869    4.3031   -0.0001 C.ar    1  LIG1       -0.0443
     33 C         -10.1321    5.4140    0.0002 C.ar    1  LIG1       -0.0236
     34 C          -9.5548    6.6971    0.0002 C.ar    1  LIG1        0.0793
     35 N          -8.2251    6.9141    0.0002 N.ar    1  LIG1       -0.2314
     36 H          -9.7005    3.2847   -0.0012 H       1  LIG1        0.0628
     37 N          -6.1469    6.0737   -0.0001 N.pl3   1  LIG1       -0.3426
     38 H          -5.6671    5.3338   -0.4716 H       1  LIG1        0.0227
     39 H          -5.9720    6.9380   -0.4716 H       1  LIG1        0.1437
     40 C         -11.4250    5.2750    0.0002 C.3     1  LIG1       -0.0377
     41 H         -11.6862    4.3682    0.5046 H       1  LIG1        0.0278
     42 H         -11.7797    5.2368   -1.0087 H       1  LIG1        0.0278
     43 H         -11.8730    6.1056    0.5045 H       1  LIG1        0.0278
     44 C          -9.7132    9.0408    0.0008 C.ar    1  LIG1        0.1254
     45 C         -10.3001    7.7622    0.0005 C.ar    1  LIG1        0.0404
     46 C         -11.6930    7.6680    0.0008 C.ar    1  LIG1       -0.0449
     47 C         -12.4461    8.8434    0.0012 C.ar    1  LIG1       -0.0316
     48 C         -11.7673   10.0758    0.0013 C.ar    1  LIG1        0.0326
     49 N         -10.4244   10.1850    0.0012 N.ar    1  LIG1       -0.2398
     50 H         -12.1874    6.6862   -0.0005 H       1  LIG1        0.0628
     51 H         -12.4244   11.1974    0.0018 H       1  LIG1        0.0833
     52 N          -8.4207    9.1799    0.0006 N.pl3   1  LIG1       -0.3426
     53 H          -8.0020    8.4037   -0.4708 H       1  LIG1        0.1437
     54 H          -8.1767   10.0273   -0.4709 H       1  LIG1        0.1437
     55 C         -13.7459    8.8089    0.0013 C.3     1  LIG1       -0.0383
     56 H         -14.0793    7.9262    0.5058 H       1  LIG1        0.0278
     57 H         -14.1026    8.7994   -1.0075 H       1  LIG1        0.0278
     58 H         -14.1255    9.6729    0.5057 H       1  LIG1        0.0278
@<TRIPOS>BOND
     1    28    26    1
     2    14    12    1
     3    42    40    1
     4    57    55    1
     5    25    23    1
     6    24    23    1
     7    39    37    1
     8    38    26    1
     9    11     9    1
    10    10     9    1
    11    54    52    1
    12    53    52    1
    13    22    18    1
    14    36    32    1
    15     7     3    1
    16    50    46    1
    17    17     5    1
    18    17    16   ar
    19    17    18   ar
    20    20    21   ar
    21    20    31    1
    22    20    19   ar
    23    26    29    1
    24    12     4    1
    25    12    15    1
    26    12    13    1
    27     5     6   ar
    28     5     4   ar
    29    16    23    1
    30    16    21   ar
    31    18    19   ar
    32    31    32   ar
    33    31    30   ar
    34    37    30    1
    35    37    27    1
    36     6     1   ar
    37     4     3   ar
    38    32    33   ar
    39    30    35   ar
    40     1     2   ar
    41     1     9    1
    42     2     3   ar
    43     2     8    1
    44    33    40    1
    45    33    34   ar
    46    40    43    1
    47    40    41    1
    48    34    35   ar
    49    34    45    1
    50    45    46   ar
    51    45    44   ar
    52    52    44    1
    53    46    47   ar
    54    44    49   ar
    55    47    48   ar
    56    47    55    1
    57    49    48   ar
    58    48    51    1
    59    55    58    1
    60    55    56    1
