@<TRIPOS>MOLECULE
mol_data/noopt/geoms/mol2/6hi6hi.out
 30 31 0 0 0
SMALL
GASTEIGER

@<TRIPOS>ATOM
      1 C          -4.5775   -2.0270    0.0001 C.ar    1  LIG1        0.1168
      2 C          -3.1706   -2.0270    0.0001 C.ar    1  LIG1       -0.0218
      3 C          -2.5039   -0.8004    0.0001 C.ar    1  LIG1       -0.0536
      4 C          -3.2580    0.3743   -0.0001 C.ar    1  LIG1       -0.0242
      5 C          -4.6612    0.2715   -0.0003 C.ar    1  LIG1        0.0793
      6 N          -5.3207   -0.9034   -0.0001 N.ar    1  LIG1       -0.2321
      7 H          -1.4054   -0.7607   -0.0009 H       1  LIG1        0.0622
      8 H          -2.5135   -3.1487    0.0004 H       1  LIG1        0.0652
      9 N          -5.2431   -3.1437    0.0002 N.pl3   1  LIG1       -0.3431
     10 H          -6.1151   -3.0120   -0.4712 H       1  LIG1        0.1437
     11 H          -4.7125   -3.8481   -0.4712 H       1  LIG1        0.1437
     12 C          -2.6845    1.5413   -0.0003 C.3     1  LIG1       -0.0377
     13 H          -3.3112    2.2468    0.5041 H       1  LIG1        0.0278
     14 H          -2.5273    1.8613   -1.0092 H       1  LIG1        0.0278
     15 H          -1.7430    1.4761    0.5040 H       1  LIG1        0.0278
     16 C          -6.8088    1.2233   -0.0003 C.ar    1  LIG1        0.1254
     17 C          -5.4065    1.3366   -0.0004 C.ar    1  LIG1        0.0404
     18 C          -4.8408    2.6129   -0.0003 C.ar    1  LIG1       -0.0449
     19 C          -5.6871    3.7231   -0.0003 C.ar    1  LIG1       -0.0316
     20 C          -7.0774    3.5076   -0.0004 C.ar    1  LIG1        0.0326
     21 N          -7.6401    2.2834   -0.0003 N.ar    1  LIG1       -0.2398
     22 H          -3.7491    2.7410   -0.0014 H       1  LIG1        0.0628
     23 H          -7.9061    4.5092   -0.0003 H       1  LIG1        0.0833
     24 N          -7.3823    0.0566   -0.0003 N.pl3   1  LIG1       -0.3426
     25 H          -8.2621    0.1177   -0.4717 H       1  LIG1        0.1437
     26 H          -6.7967   -0.6027   -0.4717 H       1  LIG1        0.1437
     27 C          -5.2094    4.9325   -0.0004 C.3     1  LIG1       -0.0383
     28 H          -5.8909    5.5852    0.5040 H       1  LIG1        0.0278
     29 H          -5.0784    5.2642   -1.0092 H       1  LIG1        0.0278
     30 H          -4.2658    4.9433    0.5040 H       1  LIG1        0.0278
@<TRIPOS>BOND
     1    29    27    1
     2    14    12    1
     3    26    24    1
     4    25    24    1
     5    11     9    1
     6    10     9    1
     7    22    18    1
     8     7     3    1
     9    17     5    1
    10    17    16   ar
    11    17    18   ar
    12    20    21   ar
    13    20    23    1
    14    20    19   ar
    15    27    19    1
    16    27    30    1
    17    27    28    1
    18    12     4    1
    19    12    15    1
    20    12    13    1
    21     5     6   ar
    22     5     4   ar
    23    16    24    1
    24    16    21   ar
    25    18    19   ar
    26     6     1   ar
    27     4     3   ar
    28     1     2   ar
    29     1     9    1
    30     3     2   ar
    31     2     8    1
