@<TRIPOS>MOLECULE
mol_data/noopt/geoms/mol2/6hl12fe(70)4hi(320)4lh(170).out
 58 60 0 0 0
SMALL
GASTEIGER

@<TRIPOS>ATOM
      1 C          -4.5775   -2.0270    0.0001 C.ar    1  LIG1        0.1172
      2 C          -3.1706   -2.0270    0.0001 C.ar    1  LIG1       -0.0186
      3 C          -2.5039   -0.8004    0.0001 C.ar    1  LIG1       -0.0145
      4 C          -3.2580    0.3743   -0.0001 C.ar    1  LIG1        0.1492
      5 C          -4.6612    0.2715   -0.0003 C.ar    1  LIG1        0.1531
      6 N          -5.3207   -0.9034   -0.0001 N.ar    1  LIG1       -0.2255
      7 H          -1.4054   -0.7607   -0.0009 H       1  LIG1        0.0656
      8 H          -2.5135   -3.1487    0.0004 H       1  LIG1        0.0653
      9 N          -5.2431   -3.1437    0.0002 N.pl3   1  LIG1       -0.3431
     10 H          -6.1151   -3.0120   -0.4712 H       1  LIG1        0.1437
     11 H          -4.7125   -3.8481   -0.4712 H       1  LIG1        0.1437
     12 O          -2.6846    1.5410   -0.0003 O.3     1  LIG1       -0.4929
     13 C          -1.2643    1.3748   -0.0004 C.3     1  LIG1        0.0789
     14 H          -0.7927    2.3353   -0.0008 H       1  LIG1        0.0660
     15 H          -0.9685    0.8326    0.8734 H       1  LIG1        0.0660
     16 H          -0.9687    0.8321   -0.8739 H       1  LIG1        0.0660
     17 C          -5.4065    1.3366   -0.0004 C.ar    1  LIG1        0.1999
     18 C          -5.6662    2.3552    0.8929 C.ar    1  LIG1        0.1807
     19 C          -6.6130    3.2411    0.2482 C.ar    1  LIG1        0.1125
     20 C          -6.8691    2.7048   -0.9970 C.ar    1  LIG1        0.1565
     21 O          -6.1368    1.5304   -1.1738 O.2     1  LIG1       -0.4480
     22 O          -5.1723    2.5132    2.0851 O.3     1  LIG1       -0.5023
     23 H          -5.3263    3.4141    2.3789 H       1  LIG1        0.2923
     24 C          -7.1094    4.3255    0.7655 C.1     1  LIG1       -0.0622
     25 C          -7.5681    5.3275    1.2435 C.1     1  LIG1       -0.1137
     26 H          -7.9767    6.2200    1.6693 H       1  LIG1        0.1232
     27 C          -7.0763    3.8200   -3.0506 C.ar    1  LIG1        0.0360
     28 C          -7.9231    4.1494   -4.1266 C.ar    1  LIG1       -0.0323
     29 C          -7.6129    3.0326   -2.0115 C.ar    1  LIG1        0.0395
     30 C          -9.2459    3.7146   -4.1684 C.ar    1  LIG1       -0.0094
     31 H          -7.5294    4.7563   -4.9389 H       1  LIG1        0.0642
     32 C          -8.9334    2.5983   -2.0528 C.ar    1  LIG1       -0.0455
     33 C          -9.7588    2.9356   -3.1305 C.ar    1  LIG1       -0.0384
     34 H          -9.3239    1.9922   -1.2392 H       1  LIG1        0.0628
     35 N          -5.8513    4.2548   -3.0679 N.pl3   1  LIG1       -0.3574
     36 H          -5.2700    3.5947   -3.5437 H       1  LIG1        0.1423
     37 H          -5.8161    5.1337   -3.5437 H       1  LIG1        0.1423
     38 C         -10.9927    2.5268   -3.1636 C.3     1  LIG1       -0.0231
     39 H         -11.0686    1.5813   -2.6684 H       1  LIG1        0.0316
     40 H         -11.3068    2.4226   -4.1812 H       1  LIG1        0.2922
     41 H         -11.6181    3.2400   -2.6685 H       1  LIG1        0.0316
     42 C         -11.0317    3.1692   -5.5888 C.ar    1  LIG1        0.1247
     43 C         -11.8194    3.5634   -6.6877 C.ar    1  LIG1       -0.0178
     44 C          -9.9998    4.0372   -5.1772 C.ar    1  LIG1        0.0256
     45 C         -11.5918    4.7684   -7.3485 C.ar    1  LIG1       -0.0376
     46 H         -12.6208    2.9084   -7.0220 H       1  LIG1        0.0655
     47 C          -9.7722    5.2403   -5.8366 C.ar    1  LIG1       -0.0298
     48 C         -10.5658    5.6145   -6.9259 C.ar    1  LIG1        0.0253
     49 H          -8.9702    5.8925   -5.5001 H       1  LIG1        0.0643
     50 H         -12.3384    5.1012   -8.3595 H       1  LIG1        0.0637
     51 O         -11.2923    2.0333   -5.0127 O.3     1  LIG1       -0.5062
     52 C         -12.7018    1.9176   -4.8013 C.3     2  LIG2       -0.0681
     53 H         -12.9159    0.9826   -4.3272 H       1  LIG1        0.0227
     54 H         -13.0356    2.7192   -4.1759 H       1  LIG1        0.0227
     55 H         -13.2087    1.9647   -5.7423 H       1  LIG1        0.0227
     56 N         -10.3483    6.7403   -7.5385 N.pl3   1  LIG1       -0.3579
     57 H          -9.5330    6.6560   -8.1114 H       1  LIG1        0.1423
     58 H         -11.1363    6.9657   -8.1114 H       1  LIG1        0.1423
@<TRIPOS>BOND
     1    50    45    1
     2    58    56    1
     3    57    56    1
     4    56    48    1
     5    45    48   ar
     6    45    43   ar
     7    46    43    1
     8    48    47   ar
     9    43    42   ar
    10    47    49    1
    11    47    44   ar
    12    55    52    1
    13    42    44   ar
    14    42    51    1
    15    44    30    1
    16    51    40    1
    17    31    28    1
    18    52    53    1
    19    52    54    1
    20    30    28   ar
    21    30    33   ar
    22    28    27   ar
    23    37    35    1
    24    36    35    1
    25    38    33    1
    26    38    41    1
    27    38    39    1
    28    33    32   ar
    29    35    27    1
    30    27    29   ar
    31    32    29   ar
    32    32    34    1
    33    29    20    1
    34    21    20   ar
    35    21    17   ar
    36    20    19   ar
    37    16    13    1
    38    11     9    1
    39    10     9    1
    40     7     3    1
    41    14    13    1
    42    13    12    1
    43    13    15    1
    44    17     5    1
    45    17    18   ar
    46     5     6   ar
    47     5     4   ar
    48    12     4    1
    49     6     1   ar
    50     4     3   ar
    51     3     2   ar
    52     2     1   ar
    53     2     8    1
    54     1     9    1
    55    19    24    1
    56    19    18   ar
    57    24    25    3
    58    18    22    1
    59    25    26    1
    60    22    23    1
