@<TRIPOS>MOLECULE
mol_data/noopt/geoms/mol2/6hl12aa4le4ai-.out
 53 54 0 0 0
SMALL
GASTEIGER

@<TRIPOS>ATOM
      1 C          -4.5775   -2.0270    0.0001 C.ar    1  LIG1        0.1172
      2 C          -3.1706   -2.0270    0.0001 C.ar    1  LIG1       -0.0186
      3 C          -2.5039   -0.8004    0.0001 C.ar    1  LIG1       -0.0145
      4 C          -3.2580    0.3743   -0.0001 C.ar    1  LIG1        0.1491
      5 C          -4.6612    0.2715   -0.0003 C.ar    1  LIG1        0.1489
      6 N          -5.3207   -0.9034   -0.0001 N.ar    1  LIG1       -0.2257
      7 H          -1.4054   -0.7607   -0.0009 H       1  LIG1        0.0656
      8 H          -2.5135   -3.1487    0.0004 H       1  LIG1        0.0653
      9 N          -5.2431   -3.1437    0.0002 N.pl3   1  LIG1       -0.3431
     10 H          -6.1151   -3.0120   -0.4712 H       1  LIG1        0.1437
     11 H          -4.7125   -3.8481   -0.4712 H       1  LIG1        0.1437
     12 O          -2.6846    1.5410   -0.0003 O.3     1  LIG1       -0.4929
     13 C          -1.2643    1.3748   -0.0004 C.3     1  LIG1        0.0789
     14 H          -0.7927    2.3353   -0.0008 H       1  LIG1        0.0660
     15 H          -0.9685    0.8326    0.8734 H       1  LIG1        0.0660
     16 H          -0.9687    0.8321   -0.8739 H       1  LIG1        0.0660
     17 C          -5.4065    1.3366   -0.0004 C.2     1  LIG1        0.1510
     18 C          -5.1776    2.6970   -0.0005 C.2     1  LIG1       -0.0141
     19 C          -6.4770    3.3362   -0.0006 C.3     1  LIG1        0.0524
     20 C          -7.4141    2.3236   -0.0007 C.3     1  LIG1        0.1908
     21 O          -6.7786    1.0814   -0.0006 O.2     1  LIG1       -0.4737
     22 H          -4.0318    3.3111   -0.0004 H       1  LIG1        0.0656
     23 H          -6.6905    4.6186   -0.0007 H       1  LIG1        0.0194
     24 C          -9.4710    3.4518    0.0000 C.ar    1  LIG1        0.1867
     25 C         -10.8743    3.3330    0.0015 C.ar    1  LIG1       -0.0057
     26 C          -8.7126    2.2633   -0.0007 C.ar    1  LIG1        0.0483
     27 C         -11.4971    2.0869    0.0016 C.ar    1  LIG1        0.0011
     28 H         -11.4786    4.2375    0.0023 H       1  LIG1        0.0662
     29 C          -9.3339    1.0190   -0.0006 C.ar    1  LIG1       -0.0350
     30 C         -10.7292    0.9218    0.0004 C.ar    1  LIG1        0.0330
     31 H          -8.7271    0.1171   -0.0011 H       1  LIG1        0.0635
     32 O          -8.9478    4.6420   -0.0003 O.3     1  LIG1       -0.2875
     33 C          -7.5217    4.5364   -0.0005 C.3     2  LIG2       -0.0776
     34 H          -7.0915    5.5161   -0.0009 H       1  LIG1        0.0194
     35 H          -7.2031    4.0073    0.8734 H       1  LIG1        0.0194
     36 H          -7.2034    4.0067   -0.8739 H       1  LIG1        0.0194
     37 C         -11.3044   -0.2441    0.0007 C.1     1  LIG1       -0.0690
     38 C         -11.8358   -1.3213    0.0009 C.1     1  LIG1       -0.1139
     39 H         -12.3092   -2.2809    0.0011 H       1  LIG1        0.1232
     40 C         -13.5648    3.1950    0.0256 C.ar    1  LIG1       -0.0540
     41 C         -14.9669    3.0626    0.0275 C.ar    1  LIG1       -0.0609
     42 C         -12.7950    2.0141    0.0028 C.ar    1  LIG1       -0.0164
     43 C         -15.5776    1.8107    0.0071 C.ar    1  LIG1       -0.0588
     44 H         -15.5799    3.9609    0.0451 H       1  LIG1        0.0618
     45 C         -13.4041    0.7640   -0.0176 C.ar    1  LIG1       -0.0511
     46 C         -14.7985    0.6532   -0.0157 C.ar    1  LIG1       -0.0499
     47 H         -12.7887   -0.1318   -0.0348 H       1  LIG1        0.0626
     48 H         -16.8748    1.7252    0.0094 H       1  LIG1        0.0620
     49 H         -13.0532    4.3899    0.0450 H       1  LIG1        0.0624
     50 C         -15.3625   -0.5183   -0.0347 C.3     1  LIG1       -0.0397
     51 H         -14.7332   -1.2252    0.4645 H       1  LIG1        0.0278
     52 H         -15.5107   -0.8264   -1.0486 H       1  LIG1        0.0278
     53 H         -16.3076   -0.4672    0.4644 H       1  LIG1        0.0278
@<TRIPOS>BOND
     1    52    50    1
     2    16    13    1
     3    36    33    1
     4    11     9    1
     5    10     9    1
     6    47    45    1
     7    50    46    1
     8    50    53    1
     9    50    51    1
    10    45    46   ar
    11    45    42   ar
    12    46    43   ar
    13    31    29    1
    14     7     3    1
    15    34    33    1
    16    14    13    1
    17    26    20    1
    18    26    29   ar
    19    26    24   ar
    20    23    33    1
    21    20    21    1
    22    20    19    1
    23    21    17    1
    24    29    30   ar
    25    18    17    2
    26    18    22    1
    27    33    35    1
    28    13    12    1
    29    13    15    1
    30    17     5    1
    31    12     4    1
    32     5     4   ar
    33     5     6   ar
    34    32    24    1
    35     4     3   ar
    36     6     1   ar
    37    24    25   ar
    38     2     3   ar
    39     2     1   ar
    40     2     8    1
    41     1     9    1
    42    30    37    1
    43    30    27   ar
    44    37    38    3
    45    38    39    1
    46    25    27   ar
    47    25    28    1
    48    27    42    1
    49    42    40   ar
    50    43    48    1
    51    43    41   ar
    52    40    41   ar
    53    40    49    1
    54    41    44    1
