@<TRIPOS>MOLECULE
mol_data/noopt/geoms/mol2/6hl13la6ea-6ia4dd-4aa4af4ae-.out
 97 101 0 0 0
SMALL
GASTEIGER

@<TRIPOS>ATOM
      1 C          -4.5775   -2.0270    0.0001 C.2     1  LIG1        0.3046
      2 C          -3.1706   -2.0270    0.0001 C.2     1  LIG1        0.0251
      3 C          -2.5039   -0.8004    0.0001 C.2     1  LIG1       -0.0676
      4 C          -3.2580    0.3743   -0.0001 C.3     1  LIG1        0.0215
      5 C          -4.6612    0.2715   -0.0003 C.3     1  LIG1        0.3094
      6 N          -5.3207   -0.9034   -0.0001 N.2     1  LIG1       -0.0594
      7 H          -1.4054   -0.7607   -0.0009 H       1  LIG1        0.0581
      8 H          -2.5135   -3.1487    0.0004 H       1  LIG1        0.0695
      9 N          -5.2431   -3.1437    0.0002 N.pl3   1  LIG1       -0.2470
     10 H          -6.1151   -3.0120   -0.4712 H       1  LIG1        0.2884
     11 H          -4.7125   -3.8481   -0.4712 H       1  LIG1        0.2884
     12 O          -2.6846    1.5410   -0.0003 O.3     2  HOH2       -0.4105
     13 C          -1.2643    1.3748   -0.0004 C.3     3  LIG3       -0.0681
     14 H          -0.7927    2.3353   -0.0008 H       1  LIG1        0.0227
     15 H          -0.9685    0.8326    0.8734 H       1  LIG1        0.0227
     16 H          -0.9687    0.8321   -0.8739 H       1  LIG1        0.0227
     17 C          -5.4065    1.3366   -0.0004 C.ar    1  LIG1        0.1215
     18 C          -5.0646    2.6523   -0.0008 C.ar    1  LIG1        0.1472
     19 C          -6.2797    3.4100    0.0004 C.ar    1  LIG1        0.0060
     20 C          -7.3108    2.5240   -0.0003 C.ar    1  LIG1        0.0530
     21 N          -6.7806    1.2535   -0.0003 N.ar    1  LIG1       -0.3510
     22 H          -7.3066    0.4100   -0.0008 H       1  LIG1        0.1658
     23 O          -3.8558    3.1308   -0.0007 O.3     1  LIG1       -0.4792
     24 C          -2.9159    2.0531   -0.0008 C.3     1  LIG1        0.1806
     25 H          -1.9212    2.4473   -0.0008 H       1  LIG1        0.0811
     26 H          -3.0615    1.4528    0.8730 H       0  HOH0        0.2052
     27 H          -3.0617    1.4527   -0.8743 H       0  HOH0        0.2052
     28 H          -6.3821    4.7060    0.0014 H       1  LIG1        0.0675
     29 C          -9.4850    1.6348   -0.0205 C.ar    1  LIG1        0.1229
     30 C          -8.5952    2.7244    0.0002 C.ar    1  LIG1        0.0323
     31 C          -9.1237    4.0164    0.0215 C.ar    1  LIG1       -0.0479
     32 C         -10.5106    4.1753    0.0211 C.ar    1  LIG1       -0.0349
     33 C         -11.3184    3.0235   -0.0007 C.ar    1  LIG1        0.0741
     34 N         -10.8254    1.7698   -0.0212 N.ar    1  LIG1       -0.2377
     35 H          -8.4597    4.8923    0.0370 H       1  LIG1        0.0626
     36 C          -9.0410    0.4132   -0.0407 C.1     1  LIG1       -0.0491
     37 C          -8.6307   -0.7156   -0.0593 C.1     1  LIG1       -0.1124
     38 H          -8.2652   -1.7211   -0.0758 H       1  LIG1        0.1232
     39 H         -11.0517    5.3571    0.0403 H       1  LIG1        0.0639
     40 C         -13.4139    1.9620   -0.0023 C.ar    1  LIG1        0.0480
     41 C         -12.6148    3.1199   -0.0019 C.ar    1  LIG1        0.0214
     42 C         -13.2456    4.3653   -0.0023 C.ar    1  LIG1       -0.0488
     43 C         -14.6408    4.4119   -0.0035 C.ar    1  LIG1       -0.0350
     44 C         -15.3532    3.1986   -0.0041 C.ar    1  LIG1        0.0726
     45 N         -14.7608    1.9885   -0.0034 N.ar    1  LIG1       -0.2512
     46 H         -12.6543    5.2919   -0.0030 H       1  LIG1        0.0625
     47 C         -12.8728    0.7796   -0.0018 C.3     1  LIG1       -0.0217
     48 H         -11.9301    0.8190    0.5027 H       1  LIG1        0.0293
     49 H         -12.7242    0.4549   -1.0105 H       1  LIG1        0.0293
     50 H         -13.5189    0.0919    0.5027 H       1  LIG1        0.0293
     51 H         -15.2753    5.5465   -0.0041 H       1  LIG1        0.0639
     52 C         -17.3635    4.4079    0.0166 C.ar    1  LIG1        0.0616
     53 C         -18.7704    4.3452    0.0161 C.ar    1  LIG1       -0.0348
     54 C         -16.6531    3.1902   -0.0050 C.ar    1  LIG1        0.0189
     55 C         -19.4424    3.1251   -0.0055 C.ar    1  LIG1        0.0007
     56 H         -19.3381    5.2729    0.0328 H       1  LIG1        0.0637
     57 C         -17.3235    1.9720   -0.0266 C.ar    1  LIG1       -0.0333
     58 C         -18.7216    1.9304   -0.0270 C.ar    1  LIG1        0.0602
     59 H         -16.7532    1.0467   -0.0429 H       1  LIG1        0.0637
     60 N         -16.2902    6.6062    0.0550 N.1     1  LIG1       -0.1908
     61 C         -16.7932    5.5760    0.0370 C.1     1  LIG1        0.0998
     62 N         -19.8908   -0.2184   -0.0648 N.1     1  LIG1       -0.1908
     63 C         -19.3428    0.7886   -0.0471 C.1     1  LIG1        0.0998
     64 C         -21.4643    4.3150   -0.0045 C.ar    1  LIG1       -0.0534
     65 C         -22.8705    4.2386   -0.0028 C.ar    1  LIG1       -0.0535
     66 C         -20.7422    3.1041   -0.0053 C.ar    1  LIG1       -0.0166
     67 C         -23.5307    3.0119   -0.0026 C.ar    1  LIG1       -0.0177
     68 H         -23.4472    5.1609   -0.0020 H       1  LIG1        0.0624
     69 C         -21.4007    1.8792   -0.0051 C.ar    1  LIG1       -0.0534
     70 C         -22.7983    1.8241   -0.0039 C.ar    1  LIG1       -0.0535
     71 H         -20.8214    0.9593   -0.0057 H       1  LIG1        0.0624
     72 H         -20.9054    5.4887   -0.0049 H       1  LIG1        0.0624
     73 H         -23.4085    0.6761   -0.0035 H       1  LIG1        0.0624
     74 C         -25.5640    4.1821    0.0003 C.ar    1  LIG1       -0.0532
     75 C         -26.9694    4.0921    0.0034 C.ar    1  LIG1       -0.0500
     76 C         -24.8302    2.9783   -0.0012 C.ar    1  LIG1       -0.0144
     77 C         -27.6176    2.8590    0.0043 C.ar    1  LIG1        0.0236
     78 H         -27.5550    5.0087    0.0048 H       1  LIG1        0.0625
     79 C         -25.4768    1.7470   -0.0003 C.ar    1  LIG1       -0.0119
     80 C         -26.8738    1.6783    0.0023 C.ar    1  LIG1        0.1251
     81 H         -24.8886    0.8328   -0.0015 H       1  LIG1        0.0660
     82 H         -25.0165    5.3612   -0.0006 H       1  LIG1        0.0624
     83 O         -27.4728    0.5245    0.0033 O.3     1  LIG1       -0.5061
     84 H         -26.8172   -0.1768    0.0035 H       1  LIG1        0.2922
     85 C         -29.6622    4.0093    0.0306 C.ar    1  LIG1       -0.0538
     86 C         -31.0667    3.9056    0.0341 C.ar    1  LIG1       -0.0600
     87 C         -28.9168    2.8128    0.0070 C.ar    1  LIG1       -0.0132
     88 C         -31.7029    2.6665    0.0144 C.ar    1  LIG1       -0.0463
     89 H         -31.6611    4.8163    0.0523 H       1  LIG1        0.0618
     90 C         -29.5514    1.5755   -0.0126 C.ar    1  LIG1       -0.0385
     91 C         -30.9478    1.4933   -0.0092 C.ar    1  LIG1        0.0253
     92 H         -28.9545    0.6672   -0.0305 H       1  LIG1        0.0636
     93 H         -33.0016    2.6076    0.0182 H       1  LIG1        0.0630
     94 H         -29.1261    5.1934    0.0493 H       1  LIG1        0.0624
     95 C         -31.5355    0.3339   -0.0274 C.1     1  LIG1       -0.0696
     96 C         -32.0786   -0.7374   -0.0443 C.1     1  LIG1       -0.1139
     97 H         -32.5624   -1.6917   -0.0593 H       1  LIG1        0.1232
@<TRIPOS>BOND
     1    49    47    1
     2    27    12    1
     3    16    13    1
     4    11     9    1
     5    10     9    1
     6    38    37    1
     7    62    63    3
     8    97    96    1
     9    37    36    3
    10    63    58    1
    11    96    95    3
    12    59    57    1
    13    36    29    1
    14    92    90    1
    15    95    91    1
    16    58    57   ar
    17    58    55   ar
    18    57    54   ar
    19    34    29   ar
    20    34    33   ar
    21    29    30   ar
    22    90    91   ar
    23    90    87   ar
    24    91    88   ar
    25    71    69    1
    26    55    66    1
    27    55    53   ar
    28    66    69   ar
    29    66    64   ar
    30    69    70   ar
    31    54    44    1
    32    54    52   ar
    33    72    64    1
    34    64    65   ar
    35    51    43    1
    36    44    43   ar
    37    44    45   ar
    38    70    73    1
    39    70    67   ar
    40    43    42   ar
    41    45    40   ar
    42    46    42    1
    43    65    67   ar
    44    65    68    1
    45    67    76    1
    46    42    41   ar
    47    40    41   ar
    48    40    47    1
    49    41    33    1
    50    47    50    1
    51    47    48    1
    52    81    79    1
    53    76    79   ar
    54    76    74   ar
    55     7     3    1
    56    25    24    1
    57    18    23    1
    58    18    17   ar
    59    18    19   ar
    60    22    21    1
    61    14    13    1
    62    24    23    1
    63    33    32   ar
    64    82    74    1
    65    13    15    1
    66    17     5    1
    67    17    21   ar
    68    79    80   ar
    69     5     6    1
    70    12    26    1
    71    21    20   ar
    72    20    30    1
    73    20    19   ar
    74     4     3    1
    75     6     1    2
    76     2     3    2
    77     2     1    1
    78     2     8    1
    79     1     9    1
    80    30    31   ar
    81    74    75   ar
    82    19    28    1
    83    80    83    1
    84    80    77   ar
    85    83    84    1
    86    75    77   ar
    87    75    78    1
    88    77    87    1
    89    87    85   ar
    90    88    93    1
    91    88    86   ar
    92    53    52   ar
    93    53    56    1
    94    52    61    1
    95    32    31   ar
    96    32    39    1
    97    31    35    1
    98    85    86   ar
    99    85    94    1
   100    86    89    1
   101    61    60    3
