@<TRIPOS>MOLECULE
mol_data/noopt/geoms/mol2/6hl6af(60)12ie(120)12fa(120).out
 47 50 0 0 0
SMALL
GASTEIGER

@<TRIPOS>ATOM
      1 C          -4.5775   -2.0270    0.0001 C.ar    1  LIG1        0.1170
      2 C          -3.1706   -2.0270    0.0001 C.ar    1  LIG1       -0.0186
      3 C          -2.5039   -0.8004    0.0001 C.ar    1  LIG1       -0.0146
      4 C          -3.2580    0.3743   -0.0001 C.ar    1  LIG1        0.1461
      5 C          -4.6612    0.2715   -0.0003 C.ar    1  LIG1        0.1161
      6 N          -5.3207   -0.9034   -0.0001 N.ar    1  LIG1       -0.2287
      7 H          -1.4054   -0.7607   -0.0009 H       1  LIG1        0.0656
      8 H          -2.5135   -3.1487    0.0004 H       1  LIG1        0.0653
      9 N          -5.2431   -3.1437    0.0002 N.pl3   1  LIG1       -0.3431
     10 H          -6.1151   -3.0120   -0.4712 H       1  LIG1        0.1437
     11 H          -4.7125   -3.8481   -0.4712 H       1  LIG1        0.1437
     12 O          -2.6846    1.5410   -0.0003 O.3     1  LIG1       -0.4930
     13 C          -1.2643    1.3748   -0.0004 C.3     1  LIG1        0.0789
     14 H          -0.7927    2.3353   -0.0008 H       1  LIG1        0.0660
     15 H          -0.9685    0.8326    0.8734 H       1  LIG1        0.0660
     16 H          -0.9687    0.8321   -0.8739 H       1  LIG1        0.0660
     17 C          -6.3120    1.5709   -1.0514 C.ar    1  LIG1        0.0379
     18 C          -5.4065    1.3366   -0.0004 C.ar    1  LIG1        0.0256
     19 C          -5.3303    2.2705    1.0345 C.ar    1  LIG1       -0.0072
     20 C          -6.1533    3.3969    0.9852 C.ar    1  LIG1        0.1464
     21 C          -7.0267    3.5431   -0.1082 C.ar    1  LIG1        0.1475
     22 N          -7.1133    2.6519   -1.1150 N.ar    1  LIG1       -0.2475
     23 H          -4.6340    2.1219    1.8720 H       1  LIG1        0.0662
     24 H          -6.4192    0.7304   -2.0374 H       1  LIG1        0.0836
     25 O          -6.1197    4.2955    1.9241 O.3     1  LIG1       -0.5045
     26 H          -7.0158    4.5507    2.1555 H       1  LIG1        0.2922
     27 C          -7.8126    4.5746   -0.1988 C.ar    1  LIG1        0.1616
     28 C          -8.8648    5.0770    0.5384 C.ar    1  LIG1        0.0131
     29 C          -9.3016    6.2842   -0.1315 C.ar    1  LIG1        0.0771
     30 C          -8.4869    6.4395   -1.2342 C.ar    1  LIG1        0.1898
     31 O          -7.5607    5.3979   -1.2972 O.2     1  LIG1       -0.4484
     32 C          -9.3826    4.5841    1.6246 C.3     1  LIG1       -0.0349
     33 H          -8.6171    4.1066    2.1998 H       1  LIG1        0.0279
     34 H         -10.1349    3.8678    1.3678 H       1  LIG1        0.0279
     35 H          -9.8219    5.3722    2.1998 H       1  LIG1        0.0279
     36 C         -10.2759    7.0541    0.2533 C.1     1  LIG1       -0.0655
     37 C         -11.1761    7.7655    0.6089 C.1     1  LIG1       -0.1138
     38 H         -11.9779    8.3992    0.9257 H       1  LIG1        0.1232
     39 C          -8.3876    7.3065   -2.1977 C.ar    1  LIG1        0.2120
     40 C          -8.7732    8.6179   -2.3842 C.ar    1  LIG1        0.1657
     41 C          -8.3437    8.9911   -3.7158 C.ar    1  LIG1        0.0185
     42 C          -7.7238    7.8826   -4.2549 C.ar    1  LIG1        0.0964
     43 O          -7.7382    6.8311   -3.3378 O.2     1  LIG1       -0.4560
     44 H          -7.1475    7.6020   -5.3858 H       1  LIG1        0.1031
     45 O          -9.3999    9.3898   -1.5466 O.3     1  LIG1       -0.5031
     46 H         -10.2569    9.0097   -1.3402 H       1  LIG1        0.2923
     47 H          -8.5209   10.1531   -4.2712 H       1  LIG1        0.0686
@<TRIPOS>BOND
     1    44    42    1
     2    47    41    1
     3    42    41   ar
     4    42    43   ar
     5    41    40   ar
     6    43    39   ar
     7    40    39   ar
     8    40    45    1
     9    39    30    1
    10    24    17    1
    11    45    46    1
    12    31    30   ar
    13    31    27   ar
    14    30    29   ar
    15    22    17   ar
    16    22    21   ar
    17    17    18   ar
    18    16    13    1
    19    11     9    1
    20    10     9    1
    21    27    21    1
    22    27    28   ar
    23    29    36    1
    24    29    28   ar
    25    21    20   ar
    26     7     3    1
    27    14    13    1
    28    13    12    1
    29    13    15    1
    30    18     5    1
    31    18    19   ar
    32     5     4   ar
    33     5     6   ar
    34    12     4    1
    35     4     3   ar
    36     6     1   ar
    37     3     2   ar
    38     1     2   ar
    39     1     9    1
    40     2     8    1
    41    36    37    3
    42    28    32    1
    43    37    38    1
    44    20    19   ar
    45    20    25    1
    46    19    23    1
    47    34    32    1
    48    32    35    1
    49    32    33    1
    50    25    26    1
