@<TRIPOS>MOLECULE
mol_data/noopt/geoms/mol2/6hl6hl6hl6hl.out
 62 65 0 0 0
SMALL
GASTEIGER

@<TRIPOS>ATOM
      1 C          -4.5775   -2.0270    0.0001 C.ar    1  LIG1        0.1170
      2 C          -3.1706   -2.0270    0.0001 C.ar    1  LIG1       -0.0186
      3 C          -2.5039   -0.8004    0.0001 C.ar    1  LIG1       -0.0146
      4 C          -3.2580    0.3743   -0.0001 C.ar    1  LIG1        0.1462
      5 C          -4.6612    0.2715   -0.0003 C.ar    1  LIG1        0.1179
      6 N          -5.3207   -0.9034   -0.0001 N.ar    1  LIG1       -0.2287
      7 H          -1.4054   -0.7607   -0.0009 H       1  LIG1        0.0656
      8 H          -2.5135   -3.1487    0.0004 H       1  LIG1        0.0653
      9 N          -5.2431   -3.1437    0.0002 N.pl3   1  LIG1       -0.3431
     10 H          -6.1151   -3.0120   -0.4712 H       1  LIG1        0.1437
     11 H          -4.7125   -3.8481   -0.4712 H       1  LIG1        0.1437
     12 O          -2.6846    1.5410   -0.0003 O.3     1  LIG1       -0.4930
     13 C          -1.2643    1.3748   -0.0004 C.3     1  LIG1        0.0789
     14 H          -0.7927    2.3353   -0.0008 H       1  LIG1        0.0660
     15 H          -0.9685    0.8326    0.8734 H       1  LIG1        0.0660
     16 H          -0.9687    0.8321   -0.8739 H       1  LIG1        0.0660
     17 C          -6.8088    1.2233   -0.0003 C.ar    1  LIG1        0.1264
     18 C          -5.4065    1.3366   -0.0004 C.ar    1  LIG1        0.0470
     19 C          -4.8408    2.6129   -0.0003 C.ar    1  LIG1       -0.0052
     20 C          -5.6871    3.7231   -0.0003 C.ar    1  LIG1        0.1468
     21 C          -7.0774    3.5076   -0.0004 C.ar    1  LIG1        0.1180
     22 N          -7.6401    2.2834   -0.0003 N.ar    1  LIG1       -0.2280
     23 H          -3.7491    2.7410   -0.0014 H       1  LIG1        0.0662
     24 N          -7.3823    0.0566   -0.0003 N.pl3   1  LIG1       -0.3426
     25 H          -8.2621    0.1177   -0.4717 H       1  LIG1        0.1437
     26 H          -6.7967   -0.6027   -0.4717 H       1  LIG1        0.1437
     27 O          -5.2095    4.9322   -0.0004 O.3     1  LIG1       -0.4929
     28 C          -3.7804    4.8809   -0.0005 C.3     1  LIG1        0.0789
     29 H          -3.3877    5.8763   -0.0007 H       1  LIG1        0.0660
     30 H          -3.4420    4.3642    0.8733 H       1  LIG1        0.0660
     31 H          -3.4421    4.3639   -0.8740 H       1  LIG1        0.0660
     32 C          -9.2948    4.2833   -0.0001 C.ar    1  LIG1        0.1264
     33 C          -7.9061    4.5092   -0.0003 C.ar    1  LIG1        0.0470
     34 C          -7.4450    5.8270   -0.0001 C.ar    1  LIG1       -0.0052
     35 C          -8.3780    6.8653    0.0002 C.ar    1  LIG1        0.1468
     36 C          -9.7465    6.5385    0.0002 C.ar    1  LIG1        0.1180
     37 N         -10.2087    5.2730    0.0002 N.ar    1  LIG1       -0.2280
     38 H          -6.3672    6.0425   -0.0012 H       1  LIG1        0.0662
     39 N          -9.7724    3.0742   -0.0002 N.pl3   1  LIG1       -0.3426
     40 H         -10.6542    3.0642   -0.4716 H       1  LIG1        0.1437
     41 H          -9.1355    2.4643   -0.4716 H       1  LIG1        0.1437
     42 O          -7.9993    8.1090    0.0002 O.3     1  LIG1       -0.4929
     43 C          -6.5708    8.1730    0.0001 C.3     1  LIG1        0.0789
     44 H          -6.2596    9.1967   -0.0000 H       1  LIG1        0.0660
     45 H          -6.1918    7.6852    0.8739 H       1  LIG1        0.0660
     46 H          -6.1919    7.6849   -0.8734 H       1  LIG1        0.0660
     47 C         -12.0191    7.1331    0.0008 C.ar    1  LIG1        0.1257
     48 C         -10.6531    7.4702    0.0005 C.ar    1  LIG1        0.0469
     49 C         -10.2997    8.8208    0.0008 C.ar    1  LIG1       -0.0059
     50 C         -11.3132    9.7806    0.0012 C.ar    1  LIG1        0.1389
     51 C         -12.6510    9.3446    0.0013 C.ar    1  LIG1        0.0713
     52 N         -13.0098    8.0460    0.0012 N.ar    1  LIG1       -0.2364
     53 H          -9.2427    9.1225   -0.0004 H       1  LIG1        0.0662
     54 H         -13.6297   10.2002    0.0018 H       1  LIG1        0.0868
     55 N         -12.3978    5.8895    0.0006 N.pl3   1  LIG1       -0.3426
     56 H         -13.2759    5.8086   -0.4709 H       1  LIG1        0.1437
     57 H         -11.7138    5.3328   -0.4709 H       1  LIG1        0.1437
     58 O         -11.0360   11.0507    0.0014 O.3     1  LIG1       -0.4936
     59 C          -9.6173   11.2296    0.0013 C.3     1  LIG1        0.0789
     60 H          -9.3895   12.2751    0.0013 H       1  LIG1        0.0660
     61 H          -9.2003   10.7738    0.8751 H       1  LIG1        0.0660
     62 H          -9.2003   10.7737   -0.8722 H       1  LIG1        0.0660
@<TRIPOS>BOND
     1    31    28    1
     2    16    13    1
     3    46    43    1
     4    62    59    1
     5    26    24    1
     6    25    24    1
     7    41    39    1
     8    40    39    1
     9    11     9    1
    10    10     9    1
    11    57    55    1
    12    56    55    1
    13    23    19    1
    14    38    34    1
    15     7     3    1
    16    14    13    1
    17    29    28    1
    18    28    27    1
    19    28    30    1
    20    53    49    1
    21    13    12    1
    22    13    15    1
    23    18     5    1
    24    18    17   ar
    25    18    19   ar
    26    21    22   ar
    27    21    33    1
    28    21    20   ar
    29    27    20    1
    30    12     4    1
    31     5     6   ar
    32     5     4   ar
    33    17    24    1
    34    17    22   ar
    35    19    20   ar
    36    33    32   ar
    37    33    34   ar
    38    39    32    1
    39     6     1   ar
    40     4     3   ar
    41    32    37   ar
    42    34    35   ar
    43    44    43    1
    44     2     1   ar
    45     2     3   ar
    46     2     8    1
    47     1     9    1
    48    43    42    1
    49    43    45    1
    50    37    36   ar
    51    36    35   ar
    52    36    48    1
    53    35    42    1
    54    48    47   ar
    55    48    49   ar
    56    55    47    1
    57    47    52   ar
    58    49    50   ar
    59    52    51   ar
    60    50    51   ar
    61    50    58    1
    62    60    59    1
    63    51    54    1
    64    59    58    1
    65    59    61    1
