@<TRIPOS>MOLECULE
mol_data/noopt/geoms/mol2/6hl6hl6hl.out
 47 49 0 0 0
SMALL
GASTEIGER

@<TRIPOS>ATOM
      1 C          -4.5775   -2.0270    0.0001 C.ar    1  LIG1        0.1170
      2 C          -3.1706   -2.0270    0.0001 C.ar    1  LIG1       -0.0186
      3 C          -2.5039   -0.8004    0.0001 C.ar    1  LIG1       -0.0146
      4 C          -3.2580    0.3743   -0.0001 C.ar    1  LIG1        0.1462
      5 C          -4.6612    0.2715   -0.0003 C.ar    1  LIG1        0.1179
      6 N          -5.3207   -0.9034   -0.0001 N.ar    1  LIG1       -0.2287
      7 H          -1.4054   -0.7607   -0.0009 H       1  LIG1        0.0656
      8 H          -2.5135   -3.1487    0.0004 H       1  LIG1        0.0653
      9 N          -5.2431   -3.1437    0.0002 N.pl3   1  LIG1       -0.3431
     10 H          -6.1151   -3.0120   -0.4712 H       1  LIG1        0.1437
     11 H          -4.7125   -3.8481   -0.4712 H       1  LIG1        0.1437
     12 O          -2.6846    1.5410   -0.0003 O.3     1  LIG1       -0.4930
     13 C          -1.2643    1.3748   -0.0004 C.3     1  LIG1        0.0789
     14 H          -0.7927    2.3353   -0.0008 H       1  LIG1        0.0660
     15 H          -0.9685    0.8326    0.8734 H       1  LIG1        0.0660
     16 H          -0.9687    0.8321   -0.8739 H       1  LIG1        0.0660
     17 C          -6.8088    1.2233   -0.0003 C.ar    1  LIG1        0.1264
     18 C          -5.4065    1.3366   -0.0004 C.ar    1  LIG1        0.0470
     19 C          -4.8408    2.6129   -0.0003 C.ar    1  LIG1       -0.0052
     20 C          -5.6871    3.7231   -0.0003 C.ar    1  LIG1        0.1468
     21 C          -7.0774    3.5076   -0.0004 C.ar    1  LIG1        0.1180
     22 N          -7.6401    2.2834   -0.0003 N.ar    1  LIG1       -0.2280
     23 H          -3.7491    2.7410   -0.0014 H       1  LIG1        0.0662
     24 N          -7.3823    0.0566   -0.0003 N.pl3   1  LIG1       -0.3426
     25 H          -8.2621    0.1177   -0.4717 H       1  LIG1        0.1437
     26 H          -6.7967   -0.6027   -0.4717 H       1  LIG1        0.1437
     27 O          -5.2095    4.9322   -0.0004 O.3     1  LIG1       -0.4929
     28 C          -3.7804    4.8809   -0.0005 C.3     1  LIG1        0.0789
     29 H          -3.3877    5.8763   -0.0007 H       1  LIG1        0.0660
     30 H          -3.4420    4.3642    0.8733 H       1  LIG1        0.0660
     31 H          -3.4421    4.3639   -0.8740 H       1  LIG1        0.0660
     32 C          -9.2948    4.2833   -0.0001 C.ar    1  LIG1        0.1257
     33 C          -7.9061    4.5092   -0.0003 C.ar    1  LIG1        0.0469
     34 C          -7.4450    5.8270   -0.0001 C.ar    1  LIG1       -0.0059
     35 C          -8.3780    6.8653    0.0002 C.ar    1  LIG1        0.1389
     36 C          -9.7465    6.5385    0.0002 C.ar    1  LIG1        0.0713
     37 N         -10.2087    5.2730    0.0002 N.ar    1  LIG1       -0.2364
     38 H          -6.3672    6.0425   -0.0012 H       1  LIG1        0.0662
     39 H         -10.6531    7.4701    0.0005 H       1  LIG1        0.0868
     40 N          -9.7724    3.0742   -0.0002 N.pl3   1  LIG1       -0.3426
     41 H         -10.6542    3.0642   -0.4716 H       1  LIG1        0.1437
     42 H          -9.1355    2.4643   -0.4716 H       1  LIG1        0.1437
     43 O          -7.9993    8.1090    0.0002 O.3     1  LIG1       -0.4936
     44 C          -6.5708    8.1730    0.0001 C.3     1  LIG1        0.0789
     45 H          -6.2596    9.1967   -0.0000 H       1  LIG1        0.0660
     46 H          -6.1918    7.6852    0.8739 H       1  LIG1        0.0660
     47 H          -6.1919    7.6849   -0.8734 H       1  LIG1        0.0660
@<TRIPOS>BOND
     1    31    28    1
     2    16    13    1
     3    47    44    1
     4    26    24    1
     5    25    24    1
     6    42    40    1
     7    41    40    1
     8    11     9    1
     9    10     9    1
    10    23    19    1
    11    38    34    1
    12     7     3    1
    13    14    13    1
    14    29    28    1
    15    28    27    1
    16    28    30    1
    17    13    12    1
    18    13    15    1
    19    18     5    1
    20    18    17   ar
    21    18    19   ar
    22    21    22   ar
    23    21    33    1
    24    21    20   ar
    25    27    20    1
    26    12     4    1
    27     5     4   ar
    28     5     6   ar
    29    17    24    1
    30    17    22   ar
    31    19    20   ar
    32    33    32   ar
    33    33    34   ar
    34    40    32    1
    35     4     3   ar
    36     6     1   ar
    37    32    37   ar
    38    34    35   ar
    39    45    44    1
    40     1     2   ar
    41     1     9    1
    42     2     3   ar
    43     2     8    1
    44    44    43    1
    45    44    46    1
    46    37    36   ar
    47    36    35   ar
    48    36    39    1
    49    35    43    1
