@<TRIPOS>MOLECULE
mol_data/noopt/geoms/mol2/6hl6hl.out
 32 33 0 0 0
SMALL
GASTEIGER

@<TRIPOS>ATOM
      1 C          -4.5775   -2.0270    0.0001 C.ar    1  LIG1        0.1170
      2 C          -3.1706   -2.0270    0.0001 C.ar    1  LIG1       -0.0186
      3 C          -2.5039   -0.8004    0.0001 C.ar    1  LIG1       -0.0146
      4 C          -3.2580    0.3743   -0.0001 C.ar    1  LIG1        0.1462
      5 C          -4.6612    0.2715   -0.0003 C.ar    1  LIG1        0.1179
      6 N          -5.3207   -0.9034   -0.0001 N.ar    1  LIG1       -0.2287
      7 H          -1.4054   -0.7607   -0.0009 H       1  LIG1        0.0656
      8 H          -2.5135   -3.1487    0.0004 H       1  LIG1        0.0653
      9 N          -5.2431   -3.1437    0.0002 N.pl3   1  LIG1       -0.3431
     10 H          -6.1151   -3.0120   -0.4712 H       1  LIG1        0.1437
     11 H          -4.7125   -3.8481   -0.4712 H       1  LIG1        0.1437
     12 O          -2.6846    1.5410   -0.0003 O.3     1  LIG1       -0.4930
     13 C          -1.2643    1.3748   -0.0004 C.3     1  LIG1        0.0789
     14 H          -0.7927    2.3353   -0.0008 H       1  LIG1        0.0660
     15 H          -0.9685    0.8326    0.8734 H       1  LIG1        0.0660
     16 H          -0.9687    0.8321   -0.8739 H       1  LIG1        0.0660
     17 C          -6.8088    1.2233   -0.0003 C.ar    1  LIG1        0.1257
     18 C          -5.4065    1.3366   -0.0004 C.ar    1  LIG1        0.0469
     19 C          -4.8408    2.6129   -0.0003 C.ar    1  LIG1       -0.0059
     20 C          -5.6871    3.7231   -0.0003 C.ar    1  LIG1        0.1389
     21 C          -7.0774    3.5076   -0.0004 C.ar    1  LIG1        0.0713
     22 N          -7.6401    2.2834   -0.0003 N.ar    1  LIG1       -0.2364
     23 H          -3.7491    2.7410   -0.0014 H       1  LIG1        0.0662
     24 H          -7.9061    4.5092   -0.0003 H       1  LIG1        0.0868
     25 N          -7.3823    0.0566   -0.0003 N.pl3   1  LIG1       -0.3426
     26 H          -8.2621    0.1177   -0.4717 H       1  LIG1        0.1437
     27 H          -6.7967   -0.6027   -0.4717 H       1  LIG1        0.1437
     28 O          -5.2095    4.9322   -0.0004 O.3     1  LIG1       -0.4936
     29 C          -3.7804    4.8809   -0.0005 C.3     1  LIG1        0.0789
     30 H          -3.3877    5.8763   -0.0007 H       1  LIG1        0.0660
     31 H          -3.4420    4.3642    0.8733 H       1  LIG1        0.0660
     32 H          -3.4421    4.3639   -0.8740 H       1  LIG1        0.0660
@<TRIPOS>BOND
     1    32    29    1
     2    16    13    1
     3    27    25    1
     4    26    25    1
     5    11     9    1
     6    10     9    1
     7    23    19    1
     8     7     3    1
     9    14    13    1
    10    30    29    1
    11    29    28    1
    12    29    31    1
    13    13    12    1
    14    13    15    1
    15    18     5    1
    16    18    17   ar
    17    18    19   ar
    18    21    22   ar
    19    21    24    1
    20    21    20   ar
    21    28    20    1
    22    12     4    1
    23     5     6   ar
    24     5     4   ar
    25    17    25    1
    26    17    22   ar
    27    19    20   ar
    28     6     1   ar
    29     4     3   ar
    30     1     2   ar
    31     1     9    1
    32     3     2   ar
    33     2     8    1
