@<TRIPOS>MOLECULE
mol_data/noopt/geoms/mol2/6hl6hl-.out
 32 32 0 0 0
SMALL
GASTEIGER

@<TRIPOS>ATOM
      1 C          -4.5775   -2.0270    0.0001 C.ar    1  LIG1        0.1170
      2 C          -3.1706   -2.0270    0.0001 C.ar    1  LIG1       -0.0186
      3 C          -2.5039   -0.8004    0.0001 C.ar    1  LIG1       -0.0148
      4 C          -3.2580    0.3743   -0.0001 C.ar    1  LIG1        0.1429
      5 C          -4.6612    0.2715   -0.0003 C.ar    1  LIG1        0.1178
      6 N          -5.3207   -0.9034   -0.0001 N.ar    1  LIG1       -0.2287
      7 H          -1.4054   -0.7607   -0.0009 H       1  LIG1        0.0656
      8 H          -2.5135   -3.1487    0.0004 H       1  LIG1        0.0653
      9 N          -5.2431   -3.1437    0.0002 N.pl3   1  LIG1       -0.3431
     10 H          -6.1151   -3.0120   -0.4712 H       1  LIG1        0.1437
     11 H          -4.7125   -3.8481   -0.4712 H       1  LIG1        0.1437
     12 O          -2.6846    1.5410   -0.0003 O.3     1  LIG1       -0.5046
     13 C          -1.2643    1.3748   -0.0004 C.3     2  LIG2       -0.0681
     14 H          -0.7927    2.3353   -0.0008 H       1  LIG1        0.0227
     15 H          -0.9685    0.8326    0.8734 H       1  LIG1        0.0227
     16 H          -0.9687    0.8321   -0.8739 H       1  LIG1        0.0227
     17 C          -4.8196    2.6153   -0.0003 C.ar    1  LIG1        0.1444
     18 C          -5.4065    1.3366   -0.0004 C.ar    1  LIG1        0.0486
     19 C          -6.7994    1.2424   -0.0003 C.ar    1  LIG1       -0.0058
     20 C          -7.5524    2.4178   -0.0003 C.ar    1  LIG1        0.1389
     21 C          -6.8736    3.6502   -0.0004 C.ar    1  LIG1        0.0714
     22 N          -5.5307    3.7594   -0.0003 N.ar    1  LIG1       -0.2348
     23 H          -7.2937    0.2606   -0.0014 H       1  LIG1        0.0662
     24 H          -7.5307    4.7719   -0.0003 H       1  LIG1        0.0868
     25 N          -3.5270    2.7543   -0.0003 N.pl3   1  LIG1       -0.2488
     26 H          -3.1083    1.9782   -0.4717 H       1  LIG1        0.2922
     27 H          -3.2830    3.6018   -0.4717 H       1  LIG1        0.1715
     28 O          -8.8520    2.3834   -0.0004 O.3     1  LIG1       -0.4936
     29 C          -9.3648    3.7183   -0.0005 C.3     1  LIG1        0.0789
     30 H         -10.4344    3.6895   -0.0008 H       1  LIG1        0.0660
     31 H          -9.0221    4.2321    0.8733 H       1  LIG1        0.0660
     32 H          -9.0217    4.2321   -0.8740 H       1  LIG1        0.0660
@<TRIPOS>BOND
     1    32    29    1
     2    16    13    1
     3    27    25    1
     4    26    12    1
     5    11     9    1
     6    10     9    1
     7    23    19    1
     8     7     3    1
     9    14    13    1
    10    30    29    1
    11    29    28    1
    12    29    31    1
    13    13    15    1
    14    18    19   ar
    15    18     5    1
    16    18    17   ar
    17    28    20    1
    18    21    20   ar
    19    21    24    1
    20    21    22   ar
    21    19    20   ar
    22    12     4    1
    23     5     6   ar
    24     5     4   ar
    25    17    22   ar
    26    17    25    1
    27     6     1   ar
    28     4     3   ar
    29     1     2   ar
    30     1     9    1
    31     3     2   ar
    32     2     8    1
