@<TRIPOS>MOLECULE
mol_data/noopt/geoms/mol2/6ia12ha4fd-6fi.out
 48 50 0 0 0
SMALL
GASTEIGER

@<TRIPOS>ATOM
      1 C          -4.5775   -2.0270    0.0001 C.ar    1  LIG1        0.0390
      2 C          -3.1706   -2.0270    0.0001 C.ar    1  LIG1       -0.0406
      3 C          -2.5039   -0.8004    0.0001 C.ar    1  LIG1       -0.0580
      4 C          -3.2580    0.3743   -0.0001 C.ar    1  LIG1       -0.0326
      5 C          -4.6612    0.2715   -0.0003 C.ar    1  LIG1        0.1081
      6 N          -5.3207   -0.9034   -0.0001 N.ar    1  LIG1       -0.2487
      7 H          -1.4054   -0.7607   -0.0009 H       1  LIG1        0.0619
      8 H          -2.5135   -3.1487    0.0004 H       1  LIG1        0.0635
      9 C          -5.2433   -3.1440    0.0002 C.3     1  LIG1       -0.0223
     10 H          -4.6754   -3.8976    0.5047 H       1  LIG1        0.0292
     11 H          -5.4259   -3.4505   -1.0086 H       1  LIG1        0.0292
     12 H          -6.1763   -3.0029    0.5046 H       1  LIG1        0.0292
     13 H          -2.6846    1.5410   -0.0003 H       1  LIG1        0.0640
     14 C          -5.4065    1.3366   -0.0004 C.ar    1  LIG1        0.1743
     15 C          -5.1776    2.6970   -0.0005 C.ar    1  LIG1        0.0731
     16 C          -6.4770    3.3362   -0.0006 C.ar    1  LIG1        0.0057
     17 C          -7.4141    2.3236   -0.0007 C.ar    1  LIG1        0.1411
     18 O          -6.7786    1.0814   -0.0006 O.2     1  LIG1       -0.4513
     19 N          -4.0318    3.3111   -0.0004 N.pl3   1  LIG1       -0.3550
     20 H          -3.3523    2.7489   -0.4717 H       1  LIG1        0.1424
     21 H          -4.1236    4.1882   -0.4718 H       1  LIG1        0.1424
     22 H          -6.6905    4.6186   -0.0007 H       1  LIG1        0.0674
     23 C          -9.4710    3.4517    0.0214 C.ar    1  LIG1        0.1281
     24 C         -10.8743    3.3328    0.0219 C.ar    1  LIG1       -0.0113
     25 C          -8.7126    2.2633   -0.0007 C.ar    1  LIG1        0.0590
     26 C         -11.4971    2.0869    0.0008 C.ar    1  LIG1       -0.0055
     27 H         -11.4785    4.2371    0.0389 H       1  LIG1        0.0660
     28 C          -9.3339    1.0192   -0.0218 C.ar    1  LIG1       -0.0432
     29 C         -10.7292    0.9219   -0.0213 C.ar    1  LIG1       -0.0297
     30 H          -8.7271    0.1175   -0.0385 H       1  LIG1        0.0629
     31 O          -8.9478    4.6416    0.0414 O.3     1  LIG1       -0.5060
     32 H          -9.6472    5.2991    0.0463 H       1  LIG1        0.2922
     33 N         -11.8117   -1.2719   -0.0582 N.3     2  LIG2        0.0000
     34 C         -11.3044   -0.2437   -0.0409 C.3     1  LIG1        0.0304
     35 C         -13.4370    0.7621    0.0025 C.ar    1  LIG1        0.2202
     36 C         -12.7950    2.0140    0.0018 C.ar    1  LIG1        0.0441
     37 C         -13.5823    3.1669    0.0025 C.ar    1  LIG1       -0.0446
     38 C         -14.9717    3.0319    0.0037 C.ar    1  LIG1       -0.0315
     39 C         -15.5205    1.7364    0.0042 C.ar    1  LIG1        0.0343
     40 N         -14.7759    0.6135    0.0037 N.ar    1  LIG1       -0.2207
     41 H         -13.1164    4.1625    0.0010 H       1  LIG1        0.0628
     42 H         -16.8083    1.5592    0.0054 H       1  LIG1        0.0833
     43 O         -12.7470   -0.3397    0.0020 O.3     1  LIG1       -0.4920
     44 H         -11.8100   -0.1310    0.0018 H       1  LIG1        0.2937
     45 C         -15.7484    4.0747    0.0043 C.3     1  LIG1       -0.0383
     46 H         -16.6620    3.8388    0.5089 H       1  LIG1        0.0278
     47 H         -15.9618    4.3611   -1.0044 H       1  LIG1        0.0278
     48 H         -15.2606    4.8825    0.5088 H       1  LIG1        0.0278
@<TRIPOS>BOND
     1    11     9    1
     2    47    45    1
     3    21    19    1
     4    20    19    1
     5    34    29    1
     6    30    28    1
     7    28    29   ar
     8    28    25   ar
     9    29    26   ar
    10     7     3    1
    11    25    17    1
    12    25    23   ar
    13    22    16    1
    14    17    18   ar
    15    17    16   ar
    16    18    14   ar
    17    16    15   ar
    18    15    14   ar
    19    15    19    1
    20    14     5    1
    21    13     4    1
    22     5     6   ar
    23     5     4   ar
    24     6     1   ar
    25     4     3   ar
    26     1     2   ar
    27     1     9    1
    28     3     2   ar
    29     2     8    1
    30     9    12    1
    31     9    10    1
    32    26    36    1
    33    26    24   ar
    34    41    37    1
    35    36    35   ar
    36    36    37   ar
    37    44    43    1
    38    43    35    1
    39    35    40   ar
    40    37    38   ar
    41    40    39   ar
    42    38    39   ar
    43    38    45    1
    44    39    42    1
    45    45    48    1
    46    45    46    1
    47    23    24   ar
    48    23    31    1
    49    24    27    1
    50    31    32    1
