@<TRIPOS>MOLECULE
mol_data/noopt/geoms/mol2/6ia12li(250)13hl(300)12le(200).out
 55 58 0 0 0
SMALL
GASTEIGER

@<TRIPOS>ATOM
      1 C          -4.5775   -2.0270    0.0001 C.ar    1  LIG1        0.0390
      2 C          -3.1706   -2.0270    0.0001 C.ar    1  LIG1       -0.0406
      3 C          -2.5039   -0.8004    0.0001 C.ar    1  LIG1       -0.0580
      4 C          -3.2580    0.3743   -0.0001 C.ar    1  LIG1       -0.0325
      5 C          -4.6612    0.2715   -0.0003 C.ar    1  LIG1        0.1099
      6 N          -5.3207   -0.9034   -0.0001 N.ar    1  LIG1       -0.2487
      7 H          -1.4054   -0.7607   -0.0009 H       1  LIG1        0.0619
      8 H          -2.5135   -3.1487    0.0004 H       1  LIG1        0.0635
      9 C          -5.2433   -3.1440    0.0002 C.3     1  LIG1       -0.0223
     10 H          -4.6754   -3.8976    0.5047 H       1  LIG1        0.0292
     11 H          -5.4259   -3.4505   -1.0086 H       1  LIG1        0.0292
     12 H          -6.1763   -3.0029    0.5046 H       1  LIG1        0.0292
     13 H          -2.6846    1.5410   -0.0003 H       1  LIG1        0.0640
     14 C          -5.4065    1.3366   -0.0004 C.ar    1  LIG1        0.1955
     15 C          -6.2744    1.9294   -0.8939 C.ar    1  LIG1        0.1707
     16 C          -6.7823    3.1225   -0.2493 C.ar    1  LIG1        0.0392
     17 C          -6.1909    3.1796    0.9959 C.ar    1  LIG1        0.1603
     18 O          -5.3384    2.0893    1.1729 O.2     1  LIG1       -0.4477
     19 O          -6.5919    1.5194   -2.0860 O.3     1  LIG1       -0.4910
     20 C          -7.7743    2.1943   -2.5237 C.3     1  LIG1        0.0790
     21 H          -8.0351    1.8567   -3.5050 H       1  LIG1        0.0660
     22 H          -8.5768    1.9822   -1.8484 H       1  LIG1        0.0660
     23 H          -7.5957    3.2491   -2.5452 H       1  LIG1        0.0660
     24 C          -7.6312    3.9606   -0.7669 C.3     1  LIG1       -0.0325
     25 H          -8.6207    3.7098   -0.4462 H       1  LIG1        0.0280
     26 H          -7.5783    3.9083   -1.8344 H       1  LIG1        0.0280
     27 H          -7.3931    4.9532   -0.4462 H       1  LIG1        0.0280
     28 C          -6.2441    3.9909    2.0103 C.ar    1  LIG1        0.1076
     29 C          -5.7767    5.2596    2.1504 C.ar    1  LIG1        0.0963
     30 C          -6.1028    5.6917    3.4761 C.ar    1  LIG1        0.1697
     31 C          -6.7568    4.6685    4.0874 C.ar    1  LIG1        0.1304
     32 N          -6.8450    3.6251    3.1936 N.ar    1  LIG1       -0.3448
     33 H          -7.2750    2.7472    3.3739 H       1  LIG1        0.1663
     34 N          -5.1483    5.9499    1.2456 N.pl3   1  LIG1       -0.3534
     35 H          -4.6043    5.3346    0.6751 H       1  LIG1        0.1425
     36 H          -5.8119    6.4339    0.6751 H       1  LIG1        0.1425
     37 O          -5.8267    6.8482    4.0017 O.3     1  LIG1       -0.4910
     38 C          -4.4142    6.9598    4.1946 C.3     1  LIG1        0.0790
     39 H          -4.1873    7.9119    4.6270 H       1  LIG1        0.0660
     40 H          -4.0811    6.1820    4.8497 H       1  LIG1        0.0660
     41 H          -3.9171    6.8689    3.2515 H       1  LIG1        0.0660
     42 C          -7.2498    4.5794    5.2869 C.ar    1  LIG1        0.1971
     43 C          -7.7256    3.5567    6.0811 C.ar    1  LIG1        0.1826
     44 C          -8.1325    4.1591    7.3335 C.ar    1  LIG1        0.1047
     45 C          -7.8780    5.5105    7.2215 C.ar    1  LIG1        0.1117
     46 O          -7.3335    5.7943    5.9687 O.2     1  LIG1       -0.4563
     47 H          -8.0248    6.5476    7.9916 H       1  LIG1        0.1043
     48 O          -7.8047    2.2926    5.7880 O.3     1  LIG1       -0.4901
     49 C          -9.1791    1.9127    5.6804 C.3     1  LIG1        0.0790
     50 H          -9.2437    0.8723    5.4390 H       1  LIG1        0.0660
     51 H          -9.6733    2.0941    6.6120 H       1  LIG1        0.0660
     52 H          -9.6487    2.4874    4.9097 H       1  LIG1        0.0660
     53 C          -8.6369    3.5254    8.3504 C.1     1  LIG1       -0.0628
     54 C          -9.1031    2.9400    9.2900 C.1     1  LIG1       -0.1137
     55 H          -9.5183    2.4184   10.1269 H       1  LIG1        0.1232
@<TRIPOS>BOND
     1    21    20    1
     2    23    20    1
     3    20    19    1
     4    20    22    1
     5    19    15    1
     6    26    24    1
     7    11     9    1
     8    15    16   ar
     9    15    14   ar
    10    24    27    1
    11    24    25    1
    12    24    16    1
    13    16    17   ar
    14     7     3    1
    15    14     5    1
    16    14    18   ar
    17    13     4    1
    18     5     6   ar
    19     5     4   ar
    20     6     1   ar
    21     4     3   ar
    22     1     2   ar
    23     1     9    1
    24     3     2   ar
    25     2     8    1
    26     9    12    1
    27     9    10    1
    28    36    34    1
    29    35    34    1
    30    17    18   ar
    31    17    28    1
    32    34    29    1
    33    28    29   ar
    34    28    32   ar
    35    29    30   ar
    36    32    33    1
    37    32    31   ar
    38    41    38    1
    39    30    37    1
    40    30    31   ar
    41    37    38    1
    42    31    42    1
    43    38    39    1
    44    38    40    1
    45    52    49    1
    46    42    46   ar
    47    42    43   ar
    48    50    49    1
    49    49    48    1
    50    49    51    1
    51    48    43    1
    52    46    45   ar
    53    43    44   ar
    54    45    44   ar
    55    45    47    1
    56    44    53    1
    57    53    54    3
    58    54    55    1
