@<TRIPOS>MOLECULE
mol_data/noopt/geoms/mol2/6ia4lf(290)6lf(330)4ii(220).out
 59 62 0 0 0
SMALL
GASTEIGER

@<TRIPOS>ATOM
      1 C          -4.5775   -2.0270    0.0001 C.ar    1  LIG1        0.0389
      2 C          -3.1706   -2.0270    0.0001 C.ar    1  LIG1       -0.0406
      3 C          -2.5039   -0.8004    0.0001 C.ar    1  LIG1       -0.0580
      4 C          -3.2580    0.3743   -0.0001 C.ar    1  LIG1       -0.0356
      5 C          -4.6612    0.2715   -0.0003 C.ar    1  LIG1        0.0749
      6 N          -5.3207   -0.9034   -0.0001 N.ar    1  LIG1       -0.2518
      7 H          -1.4054   -0.7607   -0.0009 H       1  LIG1        0.0619
      8 H          -2.5135   -3.1487    0.0004 H       1  LIG1        0.0635
      9 C          -5.2433   -3.1440    0.0002 C.3     1  LIG1       -0.0223
     10 H          -4.6754   -3.8976    0.5047 H       1  LIG1        0.0292
     11 H          -5.4259   -3.4505   -1.0086 H       1  LIG1        0.0292
     12 H          -6.1763   -3.0029    0.5046 H       1  LIG1        0.0292
     13 H          -2.6846    1.5410   -0.0003 H       1  LIG1        0.0639
     14 C          -5.4660    2.1522   -1.1489 C.ar    1  LIG1        0.1300
     15 C          -6.2867    3.2955   -1.0981 C.ar    1  LIG1       -0.0079
     16 C          -5.4065    1.3366   -0.0004 C.ar    1  LIG1        0.0455
     17 C          -7.0172    3.6143    0.0444 C.ar    1  LIG1        0.0322
     18 H          -6.3470    3.9387   -1.9732 H       1  LIG1        0.0661
     19 C          -6.1355    1.6544    1.1405 C.ar    1  LIG1       -0.0069
     20 C          -6.9455    2.7943    1.1713 C.ar    1  LIG1        0.1256
     21 H          -6.0728    1.0096    2.0134 H       1  LIG1        0.0662
     22 O          -4.8086    1.9069   -2.2433 O.3     1  LIG1       -0.4944
     23 C          -5.0385    0.5539   -2.6451 C.3     1  LIG1        0.0788
     24 H          -4.4974    0.3524   -3.5460 H       1  LIG1        0.0660
     25 H          -4.7060   -0.1088   -1.8736 H       1  LIG1        0.0660
     26 H          -6.0842    0.4055   -2.8165 H       1  LIG1        0.0660
     27 O          -7.6246    3.0864    2.2406 O.3     1  LIG1       -0.5061
     28 H          -8.1496    2.3271    2.5042 H       1  LIG1        0.2922
     29 C          -9.0309    4.6497    0.6700 C.ar    1  LIG1        0.2233
     30 C          -7.7650    4.6776    0.0566 C.ar    1  LIG1        0.0507
     31 C          -7.3362    5.8679   -0.5337 C.ar    1  LIG1       -0.0051
     32 C          -8.1787    6.9801   -0.4920 C.ar    1  LIG1        0.1435
     33 C          -9.4270    6.8536    0.1446 C.ar    1  LIG1        0.1163
     34 N          -9.8564    5.7132    0.7193 N.ar    1  LIG1       -0.2087
     35 H          -6.3538    5.9274   -1.0231 H       1  LIG1        0.0662
     36 O          -9.4739    3.5649    1.2330 O.3     1  LIG1       -0.4792
     37 C         -10.8845    3.6763    1.4397 C.3     1  LIG1        0.0804
     38 H         -11.2488    2.7833    1.9029 H       1  LIG1        0.0660
     39 H         -11.0871    4.5148    2.0729 H       1  LIG1        0.0660
     40 H         -11.3732    3.8144    0.4979 H       1  LIG1        0.0660
     41 O          -7.8256    8.1111   -1.0272 O.3     1  LIG1       -0.5046
     42 H          -8.6024    8.6595   -1.1591 H       1  LIG1        0.2922
     43 C         -11.4396    7.8450   -0.5411 C.ar    1  LIG1       -0.0411
     44 C         -12.2928    8.9607   -0.4379 C.ar    1  LIG1       -0.0580
     45 C         -10.2461    7.8609    0.2093 C.ar    1  LIG1        0.0072
     46 C         -11.9740   10.0451    0.3764 C.ar    1  LIG1       -0.0586
     47 H         -13.2188    8.9691   -1.0086 H       1  LIG1        0.0620
     48 C          -9.9274    8.9433    1.0223 C.ar    1  LIG1       -0.0493
     49 C         -10.7881   10.0422    1.1118 C.ar    1  LIG1       -0.0498
     50 H          -9.0011    8.9318    1.5911 H       1  LIG1        0.0627
     51 H         -12.7848   11.0588    0.4481 H       1  LIG1        0.0620
     52 C         -11.7914    6.8629   -1.3174 C.3     1  LIG1       -0.0391
     53 H         -11.1669    6.0154   -1.1256 H       1  LIG1        0.0278
     54 H         -11.6847    7.1604   -2.3397 H       1  LIG1        0.0278
     55 H         -12.8119    6.6046   -1.1257 H       1  LIG1        0.0278
     56 C         -10.4848   11.0514    1.8736 C.3     1  LIG1       -0.0397
     57 H         -11.3233   11.2967    2.4913 H       1  LIG1        0.0278
     58 H         -10.2316   11.8943    1.2649 H       1  LIG1        0.0278
     59 H          -9.6499   10.7938    2.4913 H       1  LIG1        0.0278
@<TRIPOS>BOND
     1    24    23    1
     2    26    23    1
     3    23    22    1
     4    23    25    1
     5    54    52    1
     6    22    14    1
     7    18    15    1
     8    52    55    1
     9    52    53    1
    10    52    43    1
    11    42    41    1
    12    14    15   ar
    13    14    16   ar
    14    15    17   ar
    15    41    32    1
    16    35    31    1
    17    11     9    1
    18    47    44    1
    19    43    44   ar
    20    43    45   ar
    21    31    32   ar
    22    31    30   ar
    23    32    33   ar
    24    44    46   ar
    25     7     3    1
    26    16     5    1
    27    16    19   ar
    28     5     6   ar
    29     5     4   ar
    30    13     4    1
    31     6     1   ar
    32     4     3   ar
    33     3     2   ar
    34     1     2   ar
    35     1     9    1
    36     2     8    1
    37     9    12    1
    38     9    10    1
    39    17    30    1
    40    17    20   ar
    41    30    29   ar
    42    33    45    1
    43    33    34   ar
    44    45    48   ar
    45    46    51    1
    46    46    49   ar
    47    40    37    1
    48    29    34   ar
    49    29    36    1
    50    48    49   ar
    51    48    50    1
    52    49    56    1
    53    19    20   ar
    54    19    21    1
    55    20    27    1
    56    36    37    1
    57    58    56    1
    58    37    38    1
    59    37    39    1
    60    56    59    1
    61    56    57    1
    62    27    28    1
