@<TRIPOS>MOLECULE
mol_data/noopt/geoms/mol2/6ia4ll(20)6ii(300)4if(330).out
 61 60 0 0 0
SMALL
GASTEIGER

@<TRIPOS>ATOM
      1 C          -4.5775   -2.0270    0.0001 C.ar    1  LIG1        0.0390
      2 C          -3.1706   -2.0270    0.0001 C.ar    1  LIG1       -0.0400
      3 C          -2.5039   -0.8004    0.0001 C.ar    1  LIG1       -0.0502
      4 C          -3.2580    0.3743   -0.0001 C.ar    1  LIG1        0.0103
      5 C          -4.6612    0.2715   -0.0003 C.ar    1  LIG1        0.0828
      6 N          -5.3207   -0.9034   -0.0001 N.ar    1  LIG1       -0.2511
      7 H          -1.4054   -0.7607   -0.0009 H       1  LIG1        0.0625
      8 H          -2.5135   -3.1487    0.0004 H       1  LIG1        0.0636
      9 C          -5.2433   -3.1440    0.0002 C.3     1  LIG1       -0.0223
     10 H          -4.6754   -3.8976    0.5047 H       1  LIG1        0.0292
     11 H          -5.4259   -3.4505   -1.0086 H       1  LIG1        0.0292
     12 H          -6.1763   -3.0029    0.5046 H       1  LIG1        0.0292
     13 H          -2.6846    1.5410   -0.0003 H       1  LIG1        0.0309
     14 C          -4.8683    2.5706    0.4183 C.ar    1  LIG1        0.1889
     15 C          -5.7168    3.6944    0.4013 C.ar    1  LIG1       -0.0030
     16 C          -5.4065    1.3366   -0.0004 C.ar    1  LIG1        0.0511
     17 C          -7.0428    3.5964   -0.0144 C.ar    1  LIG1        0.0291
     18 H          -5.3219    4.6563    0.7206 H       1  LIG1        0.0663
     19 C          -6.7301    1.2381   -0.4156 C.ar    1  LIG1       -0.0065
     20 C          -7.5572    2.3662   -0.4257 C.ar    1  LIG1        0.1287
     21 H          -7.1218    0.2753   -0.7337 H       1  LIG1        0.0662
     22 O          -3.6403    2.7247    0.8164 O.3     1  LIG1       -0.2872
     23 C          -3.0216    1.4437    0.9624 C.3     2  LIG2       -0.0309
     24 H          -2.0109    1.5709    1.2898 H       3  UNK3        0.0000
     25 H          -3.5608    0.8675    1.6851 H       4  UNK4        0.0000
     26 H          -3.0303    0.9341    0.0216 H       5  UNK5        0.0000
     27 O          -8.7938    2.2681   -0.8147 O.3     1  LIG1       -0.4945
     28 C          -9.3543    3.5758   -0.9576 C.3     1  LIG1        0.0788
     29 H         -10.3721    3.4946   -1.2779 H       1  LIG1        0.0660
     30 H          -9.3160    4.0850   -0.0172 H       1  LIG1        0.0660
     31 H          -8.7945    4.1264   -1.6844 H       1  LIG1        0.0660
     32 C          -8.7070    4.8824    1.0318 C.ar    1  LIG1        0.0467
     33 C          -7.7981    4.6544   -0.0176 C.ar    1  LIG1        0.0070
     34 C          -7.7289    5.5870   -1.0542 C.ar    1  LIG1       -0.0473
     35 C          -8.5625    6.7058   -1.0083 C.ar    1  LIG1       -0.0239
     36 C          -9.4389    6.8459    0.0834 C.ar    1  LIG1        0.0746
     37 N          -9.5185    5.9561    1.0920 N.ar    1  LIG1       -0.2510
     38 H          -7.0317    5.4421   -1.8915 H       1  LIG1        0.0627
     39 C          -8.8078    4.0428    2.0195 C.3     1  LIG1       -0.0217
     40 H          -7.9224    4.0887    2.6185 H       1  LIG1        0.0293
     41 H          -8.9268    3.0516    1.6343 H       1  LIG1        0.0293
     42 H          -9.6573    4.2970    2.6184 H       1  LIG1        0.0293
     43 C          -8.5361    7.6028   -1.9493 C.3     1  LIG1       -0.0377
     44 H          -9.3914    8.2395   -1.8593 H       1  LIG1        0.0278
     45 H          -8.5504    7.1191   -2.9037 H       1  LIG1        0.0278
     46 H          -7.6448    8.1880   -1.8593 H       1  LIG1        0.0278
     47 C          -9.8530    9.1059   -0.3908 C.ar    1  LIG1       -0.0410
     48 C         -10.7491   10.1853   -0.2679 C.ar    1  LIG1       -0.0548
     49 C         -10.2344    7.8703    0.1710 C.ar    1  LIG1        0.0070
     50 C         -11.9717   10.0430    0.3845 C.ar    1  LIG1       -0.0199
     51 H         -10.4746   11.1477   -0.6941 H       1  LIG1        0.0622
     52 C         -11.4548    7.7276    0.8225 C.ar    1  LIG1       -0.0107
     53 C         -12.3316    8.8117    0.9338 C.ar    1  LIG1        0.1175
     54 H         -11.7260    6.7646    1.2475 H       1  LIG1        0.0661
     55 H         -12.7750   11.0607    0.4795 H       1  LIG1        0.0654
     56 C          -8.7268    9.3001   -1.0111 C.3     1  LIG1       -0.0391
     57 H          -8.3292   10.2552   -0.7379 H       1  LIG1        0.0278
     58 H          -8.8921    9.2716   -2.0679 H       1  LIG1        0.0278
     59 H          -8.0324    8.5332   -0.7379 H       1  LIG1        0.0278
     60 O         -13.4710    8.6724    1.5441 O.3     1  LIG1       -0.5067
     61 H         -13.6420    7.7398    1.6945 H       1  LIG1        0.2921
@<TRIPOS>BOND
     1    45    43    1
     2    58    56    1
     3    43    46    1
     4    43    44    1
     5    43    35    1
     6    38    34    1
     7    31    28    1
     8    29    28    1
     9    34    35   ar
    10    34    33   ar
    11    56    59    1
    12    56    57    1
    13    56    47    1
    14    11     9    1
    15    35    36   ar
    16    28    27    1
    17    28    30    1
    18    27    20    1
    19    21    19    1
    20    51    48    1
    21    20    19   ar
    22    20    17   ar
    23    19    16   ar
    24    47    48   ar
    25    47    49   ar
    26    48    50   ar
    27    33    17    1
    28    33    32   ar
    29    17    15   ar
    30     7     3    1
    31    16     5    1
    32    16    14   ar
    33    13    23    1
    34     5     6   ar
    35     5     4   ar
    36     6     1   ar
    37     4     3   ar
    38     1     2   ar
    39     1     9    1
    40     2     3   ar
    41     2     8    1
    42     9    12    1
    43     9    10    1
    44    36    49    1
    45    36    37   ar
    46    49    52   ar
    47    50    55    1
    48    50    53   ar
    49    15    14   ar
    50    15    18    1
    51    14    22    1
    52    52    53   ar
    53    52    54    1
    54    53    60    1
    55    32    37   ar
    56    32    39    1
    57    60    61    1
    58    41    39    1
    59    39    42    1
    60    39    40    1
