@<TRIPOS>MOLECULE
mol_data/noopt/geoms/mol2/6ia4ai(300)12ed(350)6ee(70).out
 50 53 0 0 0
SMALL
GASTEIGER

@<TRIPOS>ATOM
      1 C          -4.5775   -2.0270    0.0001 C.ar    1  LIG1        0.0389
      2 C          -3.1706   -2.0270    0.0001 C.ar    1  LIG1       -0.0406
      3 C          -2.5039   -0.8004    0.0001 C.ar    1  LIG1       -0.0581
      4 C          -3.2580    0.3743   -0.0001 C.ar    1  LIG1       -0.0357
      5 C          -4.6612    0.2715   -0.0003 C.ar    1  LIG1        0.0713
      6 N          -5.3207   -0.9034   -0.0001 N.ar    1  LIG1       -0.2519
      7 H          -1.4054   -0.7607   -0.0009 H       1  LIG1        0.0619
      8 H          -2.5135   -3.1487    0.0004 H       1  LIG1        0.0635
      9 C          -5.2433   -3.1440    0.0002 C.3     1  LIG1       -0.0223
     10 H          -4.6754   -3.8976    0.5047 H       1  LIG1        0.0292
     11 H          -5.4259   -3.4505   -1.0086 H       1  LIG1        0.0292
     12 H          -6.1763   -3.0029    0.5046 H       1  LIG1        0.0292
     13 H          -2.6846    1.5410   -0.0003 H       1  LIG1        0.0639
     14 C          -5.3078    2.2629   -1.0587 C.ar    1  LIG1       -0.0519
     15 C          -6.1356    3.4013   -1.0116 C.ar    1  LIG1       -0.0502
     16 C          -5.4065    1.3366   -0.0004 C.ar    1  LIG1        0.0006
     17 C          -7.0234    3.6099    0.0413 C.ar    1  LIG1        0.0215
     18 H          -6.0754    4.1289   -1.8180 H       1  LIG1        0.0625
     19 C          -6.2927    1.5444    1.0511 C.ar    1  LIG1       -0.0490
     20 C          -7.1069    2.6814    1.0796 C.ar    1  LIG1       -0.0391
     21 H          -6.3502    0.8155    1.8554 H       1  LIG1        0.0627
     22 H          -4.4997    2.1231   -2.0673 H       1  LIG1        0.0624
     23 C          -7.9336    2.8704    2.0654 C.3     1  LIG1       -0.0390
     24 H          -7.9823    1.9854    2.6648 H       1  LIG1        0.0278
     25 H          -8.9059    3.0928    1.6779 H       1  LIG1        0.0278
     26 H          -7.5927    3.6887    2.6647 H       1  LIG1        0.0278
     27 C          -7.7729    4.6720    0.0528 C.ar    1  LIG1        0.1525
     28 C          -7.5595    6.0278   -0.0862 C.ar    1  LIG1        0.0884
     29 C          -8.8541    6.6658    0.0316 C.ar    1  LIG1        0.1135
     30 C          -9.7732    5.6570    0.2347 C.ar    1  LIG1        0.1569
     31 O          -9.1308    4.4185    0.2516 O.2     1  LIG1       -0.4521
     32 C          -6.4295    6.6391   -0.2845 C.1     1  LIG1       -0.0645
     33 C          -5.3853    7.2040   -0.4677 C.1     1  LIG1       -0.1138
     34 H          -4.4552    7.7072   -0.6309 H       1  LIG1        0.1232
     35 N          -9.2764    9.0715   -0.1099 N.1     1  LIG1       -0.1907
     36 C          -9.0785    7.9440   -0.0436 C.1     1  LIG1        0.1042
     37 C         -11.8974    5.1431   -0.6267 C.ar    1  LIG1        0.1239
     38 C         -11.0602    5.5977    0.4085 C.ar    1  LIG1        0.0535
     39 C         -11.6431    5.9803    1.6180 C.ar    1  LIG1       -0.0315
     40 C         -13.0301    5.8968    1.7515 C.ar    1  LIG1        0.0435
     41 C         -13.7831    5.4295    0.6587 C.ar    1  LIG1        0.0444
     42 N         -13.2371    5.0561   -0.5151 N.ar    1  LIG1       -0.2448
     43 H         -11.0212    6.3417    2.4492 H       1  LIG1        0.0638
     44 H         -15.0773    5.3339    0.7345 H       1  LIG1        0.0842
     45 C         -11.4016    4.7757   -1.7709 C.1     1  LIG1       -0.0491
     46 C         -10.9434    4.4363   -2.8282 C.1     1  LIG1       -0.1124
     47 H         -10.5353    4.1339   -3.7699 H       1  LIG1        0.1232
     48 C         -13.6208    6.2413    2.8572 C.1     1  LIG1       -0.0681
     49 C         -14.1666    6.5596    3.8788 C.1     1  LIG1       -0.1139
     50 H         -14.6527    6.8431    4.7889 H       1  LIG1        0.1232
@<TRIPOS>BOND
     1    47    46    1
     2    46    45    3
     3    22    14    1
     4    18    15    1
     5    45    37    1
     6    14    15   ar
     7    14    16   ar
     8    15    17   ar
     9    11     9    1
    10    34    33    1
    11    37    42   ar
    12    37    38   ar
    13    42    41   ar
    14    33    32    3
    15    32    28    1
    16    35    36    3
    17    28    29   ar
    18    28    27   ar
    19    36    29    1
    20     7     3    1
    21    16     5    1
    22    16    19   ar
    23    13     4    1
    24     5     4   ar
    25     5     6   ar
    26     4     3   ar
    27     6     1   ar
    28     2     3   ar
    29     2     1   ar
    30     2     8    1
    31     1     9    1
    32     9    12    1
    33     9    10    1
    34    29    30   ar
    35    17    27    1
    36    17    20   ar
    37    27    31   ar
    38    30    31   ar
    39    30    38    1
    40    38    39   ar
    41    41    44    1
    42    41    40   ar
    43    19    20   ar
    44    19    21    1
    45    20    23    1
    46    39    40   ar
    47    39    43    1
    48    25    23    1
    49    40    48    1
    50    23    26    1
    51    23    24    1
    52    48    49    3
    53    49    50    1
