@<TRIPOS>MOLECULE
mol_data/noopt/geoms/mol2/6ia6ia-6ia6ia-.out
 50 53 0 0 0
SMALL
GASTEIGER

@<TRIPOS>ATOM
      1 C          -4.5775   -2.0270    0.0001 C.ar    1  LIG1        0.0389
      2 C          -3.1706   -2.0270    0.0001 C.ar    1  LIG1       -0.0406
      3 C          -2.5039   -0.8004    0.0001 C.ar    1  LIG1       -0.0581
      4 C          -3.2580    0.3743   -0.0001 C.ar    1  LIG1       -0.0356
      5 C          -4.6612    0.2715   -0.0003 C.ar    1  LIG1        0.0730
      6 N          -5.3207   -0.9034   -0.0001 N.ar    1  LIG1       -0.2518
      7 H          -1.4054   -0.7607   -0.0009 H       1  LIG1        0.0619
      8 H          -2.5135   -3.1487    0.0004 H       1  LIG1        0.0635
      9 C          -5.2433   -3.1440    0.0002 C.3     1  LIG1       -0.0223
     10 H          -4.6754   -3.8976    0.5047 H       1  LIG1        0.0292
     11 H          -5.4259   -3.4505   -1.0086 H       1  LIG1        0.0292
     12 H          -6.1763   -3.0029    0.5046 H       1  LIG1        0.0292
     13 H          -2.6846    1.5410   -0.0003 H       1  LIG1        0.0639
     14 C          -4.8196    2.6153   -0.0003 C.ar    1  LIG1        0.0480
     15 C          -5.4065    1.3366   -0.0004 C.ar    1  LIG1        0.0214
     16 C          -6.7994    1.2424   -0.0003 C.ar    1  LIG1       -0.0488
     17 C          -7.5524    2.4178   -0.0003 C.ar    1  LIG1       -0.0350
     18 C          -6.8736    3.6502   -0.0004 C.ar    1  LIG1        0.0730
     19 N          -5.5307    3.7594   -0.0003 N.ar    1  LIG1       -0.2512
     20 H          -7.2937    0.2606   -0.0014 H       1  LIG1        0.0625
     21 C          -3.5268    2.7544   -0.0003 C.3     1  LIG1       -0.0217
     22 H          -3.2656    3.6611    0.5042 H       1  LIG1        0.0293
     23 H          -3.1721    2.7926   -1.0091 H       1  LIG1        0.0293
     24 H          -3.0787    1.9238    0.5041 H       1  LIG1        0.0293
     25 H          -8.8520    2.3834   -0.0004 H       1  LIG1        0.0639
     26 C          -8.9376    4.7719   -0.0001 C.ar    1  LIG1        0.0480
     27 C          -7.5307    4.7719   -0.0003 C.ar    1  LIG1        0.0214
     28 C          -6.8640    5.9985   -0.0001 C.ar    1  LIG1       -0.0488
     29 C          -7.6181    7.1732    0.0002 C.ar    1  LIG1       -0.0350
     30 C          -9.0213    7.0704    0.0002 C.ar    1  LIG1        0.0730
     31 N          -9.6808    5.8955    0.0002 N.ar    1  LIG1       -0.2512
     32 H          -5.7655    6.0382   -0.0012 H       1  LIG1        0.0625
     33 C          -9.6034    3.6549   -0.0002 C.3     1  LIG1       -0.0217
     34 H          -9.0356    2.9012    0.5043 H       1  LIG1        0.0293
     35 H          -9.7859    3.3486   -1.0090 H       1  LIG1        0.0293
     36 H         -10.5365    3.7959    0.5042 H       1  LIG1        0.0293
     37 H          -7.0447    8.3399    0.0002 H       1  LIG1        0.0639
     38 C          -9.1798    9.4141    0.0008 C.ar    1  LIG1        0.0473
     39 C          -9.7667    8.1355    0.0005 C.ar    1  LIG1        0.0214
     40 C         -11.1596    8.0413    0.0008 C.ar    1  LIG1       -0.0494
     41 C         -11.9126    9.2167    0.0012 C.ar    1  LIG1       -0.0430
     42 C         -11.2338   10.4491    0.0013 C.ar    1  LIG1        0.0279
     43 N          -9.8909   10.5583    0.0012 N.ar    1  LIG1       -0.2595
     44 H         -11.6539    7.0595   -0.0005 H       1  LIG1        0.0625
     45 H         -11.8909   11.5707    0.0018 H       1  LIG1        0.0829
     46 C          -7.8869    9.5532    0.0006 C.3     1  LIG1       -0.0217
     47 H          -7.6257   10.4600    0.5050 H       1  LIG1        0.0293
     48 H          -7.5324    9.5915   -1.0083 H       1  LIG1        0.0293
     49 H          -7.4388    8.7227    0.5049 H       1  LIG1        0.0293
     50 H         -13.2121    9.1823    0.0013 H       1  LIG1        0.0633
@<TRIPOS>BOND
     1    23    21    1
     2    35    33    1
     3    11     9    1
     4    48    46    1
     5    20    16    1
     6    32    28    1
     7     7     3    1
     8    44    40    1
     9    15    16   ar
    10    15     5    1
    11    15    14   ar
    12    25    17    1
    13    18    17   ar
    14    18    27    1
    15    18    19   ar
    16    16    17   ar
    17    13     4    1
    18     5     6   ar
    19     5     4   ar
    20    27    26   ar
    21    27    28   ar
    22    14    19   ar
    23    14    21    1
    24    21    24    1
    25    21    22    1
    26    33    26    1
    27    33    36    1
    28    33    34    1
    29     6     1   ar
    30     4     3   ar
    31    26    31   ar
    32    28    29   ar
    33     1     2   ar
    34     1     9    1
    35     2     3   ar
    36     2     8    1
    37    31    30   ar
    38    30    29   ar
    39    30    39    1
    40    29    37    1
    41     9    12    1
    42     9    10    1
    43    39    40   ar
    44    39    38   ar
    45    46    38    1
    46    46    49    1
    47    46    47    1
    48    40    41   ar
    49    38    43   ar
    50    41    42   ar
    51    41    50    1
    52    43    42   ar
    53    42    45    1
