@<TRIPOS>MOLECULE
mol_data/noopt/geoms/mol2/6ia6ia6ia-6ia-.out
 50 53 0 0 0
SMALL
GASTEIGER

@<TRIPOS>ATOM
      1 C          -4.5775   -2.0270    0.0001 C.ar    1  LIG1        0.0389
      2 C          -3.1706   -2.0270    0.0001 C.ar    1  LIG1       -0.0406
      3 C          -2.5039   -0.8004    0.0001 C.ar    1  LIG1       -0.0581
      4 C          -3.2580    0.3743   -0.0001 C.ar    1  LIG1       -0.0356
      5 C          -4.6612    0.2715   -0.0003 C.ar    1  LIG1        0.0730
      6 N          -5.3207   -0.9034   -0.0001 N.ar    1  LIG1       -0.2518
      7 H          -1.4054   -0.7607   -0.0009 H       1  LIG1        0.0619
      8 H          -2.5135   -3.1487    0.0004 H       1  LIG1        0.0635
      9 C          -5.2433   -3.1440    0.0002 C.3     1  LIG1       -0.0223
     10 H          -4.6754   -3.8976    0.5047 H       1  LIG1        0.0292
     11 H          -5.4259   -3.4505   -1.0086 H       1  LIG1        0.0292
     12 H          -6.1763   -3.0029    0.5046 H       1  LIG1        0.0292
     13 H          -2.6846    1.5410   -0.0003 H       1  LIG1        0.0639
     14 C          -6.8088    1.2233   -0.0003 C.ar    1  LIG1        0.0480
     15 C          -5.4065    1.3366   -0.0004 C.ar    1  LIG1        0.0214
     16 C          -4.8408    2.6129   -0.0003 C.ar    1  LIG1       -0.0488
     17 C          -5.6871    3.7231   -0.0003 C.ar    1  LIG1       -0.0350
     18 C          -7.0774    3.5076   -0.0004 C.ar    1  LIG1        0.0730
     19 N          -7.6401    2.2834   -0.0003 N.ar    1  LIG1       -0.2512
     20 H          -3.7491    2.7410   -0.0014 H       1  LIG1        0.0625
     21 C          -7.3825    0.0563   -0.0003 C.3     1  LIG1       -0.0217
     22 H          -6.7558   -0.6491    0.5041 H       1  LIG1        0.0293
     23 H          -7.5398   -0.2638   -1.0091 H       1  LIG1        0.0293
     24 H          -8.3239    0.1217    0.5041 H       1  LIG1        0.0293
     25 H          -5.2095    4.9322   -0.0004 H       1  LIG1        0.0639
     26 C          -7.4241    5.8310   -0.0000 C.ar    1  LIG1        0.0480
     27 C          -7.9061    4.5092   -0.0003 C.ar    1  LIG1        0.0214
     28 C          -9.2869    4.3031   -0.0001 C.ar    1  LIG1       -0.0488
     29 C         -10.1321    5.4140    0.0002 C.ar    1  LIG1       -0.0350
     30 C          -9.5548    6.6971    0.0002 C.ar    1  LIG1        0.0730
     31 N          -8.2251    6.9141    0.0002 N.ar    1  LIG1       -0.2512
     32 H          -9.7005    3.2847   -0.0012 H       1  LIG1        0.0625
     33 C          -6.1467    6.0738   -0.0001 C.3     1  LIG1       -0.0217
     34 H          -5.9593    6.9986    0.5043 H       1  LIG1        0.0293
     35 H          -5.7963    6.1404   -1.0090 H       1  LIG1        0.0293
     36 H          -5.6331    5.2820    0.5042 H       1  LIG1        0.0293
     37 H         -11.4247    5.2750    0.0002 H       1  LIG1        0.0639
     38 C          -9.7132    9.0408    0.0008 C.ar    1  LIG1        0.0473
     39 C         -10.3001    7.7622    0.0005 C.ar    1  LIG1        0.0214
     40 C         -11.6930    7.6680    0.0008 C.ar    1  LIG1       -0.0494
     41 C         -12.4461    8.8434    0.0012 C.ar    1  LIG1       -0.0430
     42 C         -11.7673   10.0758    0.0013 C.ar    1  LIG1        0.0279
     43 N         -10.4244   10.1850    0.0012 N.ar    1  LIG1       -0.2595
     44 H         -12.1874    6.6862   -0.0005 H       1  LIG1        0.0625
     45 H         -12.4244   11.1974    0.0018 H       1  LIG1        0.0829
     46 C          -8.4204    9.1799    0.0006 C.3     1  LIG1       -0.0217
     47 H          -8.1591   10.0867    0.5050 H       1  LIG1        0.0293
     48 H          -8.0659    9.2182   -1.0083 H       1  LIG1        0.0293
     49 H          -7.9723    8.3494    0.5049 H       1  LIG1        0.0293
     50 H         -13.7456    8.8090    0.0013 H       1  LIG1        0.0633
@<TRIPOS>BOND
     1    23    21    1
     2    35    33    1
     3    11     9    1
     4    48    46    1
     5    20    16    1
     6    32    28    1
     7     7     3    1
     8    44    40    1
     9    15     5    1
    10    15    14   ar
    11    15    16   ar
    12    18    19   ar
    13    18    27    1
    14    18    17   ar
    15    25    17    1
    16    13     4    1
    17     5     6   ar
    18     5     4   ar
    19    14    21    1
    20    14    19   ar
    21    16    17   ar
    22    21    24    1
    23    21    22    1
    24    27    28   ar
    25    27    26   ar
    26    33    26    1
    27    33    36    1
    28    33    34    1
    29     6     1   ar
    30     4     3   ar
    31    28    29   ar
    32    26    31   ar
    33     1     2   ar
    34     1     9    1
    35     2     3   ar
    36     2     8    1
    37    29    37    1
    38    29    30   ar
    39    30    31   ar
    40    30    39    1
    41     9    12    1
    42     9    10    1
    43    39    40   ar
    44    39    38   ar
    45    46    38    1
    46    46    49    1
    47    46    47    1
    48    40    41   ar
    49    38    43   ar
    50    41    42   ar
    51    41    50    1
    52    43    42   ar
    53    42    45    1
