@<TRIPOS>MOLECULE
mol_data/noopt/geoms/mol2/6ia6ia-.out
 26 27 0 0 0
SMALL
GASTEIGER

@<TRIPOS>ATOM
      1 C          -4.5775   -2.0270    0.0001 C.ar    1  LIG1        0.0389
      2 C          -3.1706   -2.0270    0.0001 C.ar    1  LIG1       -0.0406
      3 C          -2.5039   -0.8004    0.0001 C.ar    1  LIG1       -0.0581
      4 C          -3.2580    0.3743   -0.0001 C.ar    1  LIG1       -0.0356
      5 C          -4.6612    0.2715   -0.0003 C.ar    1  LIG1        0.0730
      6 N          -5.3207   -0.9034   -0.0001 N.ar    1  LIG1       -0.2518
      7 H          -1.4054   -0.7607   -0.0009 H       1  LIG1        0.0619
      8 H          -2.5135   -3.1487    0.0004 H       1  LIG1        0.0635
      9 C          -5.2433   -3.1440    0.0002 C.3     1  LIG1       -0.0223
     10 H          -4.6754   -3.8976    0.5047 H       1  LIG1        0.0292
     11 H          -5.4259   -3.4505   -1.0086 H       1  LIG1        0.0292
     12 H          -6.1763   -3.0029    0.5046 H       1  LIG1        0.0292
     13 H          -2.6846    1.5410   -0.0003 H       1  LIG1        0.0639
     14 C          -4.8196    2.6153   -0.0003 C.ar    1  LIG1        0.0473
     15 C          -5.4065    1.3366   -0.0004 C.ar    1  LIG1        0.0214
     16 C          -6.7994    1.2424   -0.0003 C.ar    1  LIG1       -0.0494
     17 C          -7.5524    2.4178   -0.0003 C.ar    1  LIG1       -0.0430
     18 C          -6.8736    3.6502   -0.0004 C.ar    1  LIG1        0.0279
     19 N          -5.5307    3.7594   -0.0003 N.ar    1  LIG1       -0.2595
     20 H          -7.2937    0.2606   -0.0014 H       1  LIG1        0.0625
     21 H          -7.5307    4.7719   -0.0003 H       1  LIG1        0.0829
     22 C          -3.5268    2.7544   -0.0003 C.3     1  LIG1       -0.0217
     23 H          -3.2656    3.6611    0.5042 H       1  LIG1        0.0293
     24 H          -3.1721    2.7926   -1.0091 H       1  LIG1        0.0293
     25 H          -3.0787    1.9238    0.5041 H       1  LIG1        0.0293
     26 H          -8.8520    2.3834   -0.0004 H       1  LIG1        0.0633
@<TRIPOS>BOND
     1    24    22    1
     2    11     9    1
     3    20    16    1
     4     7     3    1
     5    15    16   ar
     6    15     5    1
     7    15    14   ar
     8    26    17    1
     9    18    17   ar
    10    18    21    1
    11    18    19   ar
    12    16    17   ar
    13     5     6   ar
    14     5     4   ar
    15    13     4    1
    16    14    19   ar
    17    14    22    1
    18    22    25    1
    19    22    23    1
    20     6     1   ar
    21     4     3   ar
    22     1     2   ar
    23     1     9    1
    24     3     2   ar
    25     2     8    1
    26     9    12    1
    27     9    10    1
