@<TRIPOS>MOLECULE
mol_data/noopt/geoms/mol2/6ia6df6di-4ae13ia13ai13ei-12ie-.out
 97 104 0 0 0
SMALL
GASTEIGER

@<TRIPOS>ATOM
      1 C          -4.5775   -2.0270    0.0001 C.ar    1  LIG1        0.0389
      2 C          -3.1706   -2.0270    0.0001 C.ar    1  LIG1       -0.0406
      3 C          -2.5039   -0.8004    0.0001 C.ar    1  LIG1       -0.0581
      4 C          -3.2580    0.3743   -0.0001 C.ar    1  LIG1       -0.0356
      5 C          -4.6612    0.2715   -0.0003 C.ar    1  LIG1        0.0741
      6 N          -5.3207   -0.9034   -0.0001 N.ar    1  LIG1       -0.2518
      7 H          -1.4054   -0.7607   -0.0009 H       1  LIG1        0.0619
      8 H          -2.5135   -3.1487    0.0004 H       1  LIG1        0.0635
      9 C          -5.2433   -3.1440    0.0002 C.3     1  LIG1       -0.0223
     10 H          -4.6754   -3.8976    0.5047 H       1  LIG1        0.0292
     11 H          -5.4259   -3.4505   -1.0086 H       1  LIG1        0.0292
     12 H          -6.1763   -3.0029    0.5046 H       1  LIG1        0.0292
     13 H          -2.6846    1.5410   -0.0003 H       1  LIG1        0.0639
     14 C          -6.8088    1.2233   -0.0003 C.ar    1  LIG1        0.1501
     15 C          -5.4065    1.3366   -0.0004 C.ar    1  LIG1        0.0397
     16 C          -4.8408    2.6129   -0.0003 C.ar    1  LIG1       -0.0061
     17 C          -5.6871    3.7231   -0.0003 C.ar    1  LIG1        0.1435
     18 C          -7.0774    3.5076   -0.0004 C.ar    1  LIG1        0.1165
     19 N          -7.6401    2.2834   -0.0003 N.ar    1  LIG1       -0.2319
     20 H          -3.7491    2.7410   -0.0014 H       1  LIG1        0.0662
     21 N          -7.8881   -0.9724   -0.0003 N.1     1  LIG1       -0.1893
     22 C          -7.3823    0.0566   -0.0003 C.1     1  LIG1        0.1198
     23 O          -5.2095    4.9322   -0.0004 O.3     1  LIG1       -0.5046
     24 H          -5.9335    5.5627   -0.0004 H       1  LIG1        0.2922
     25 C          -9.2946    4.2834   -0.0212 C.ar    1  LIG1        0.1500
     26 C          -7.9061    4.5092   -0.0003 C.ar    1  LIG1        0.0401
     27 C          -7.4452    5.8268    0.0208 C.ar    1  LIG1       -0.0448
     28 C          -8.3781    6.8652    0.0200 C.ar    1  LIG1       -0.0238
     29 C          -9.7464    6.5385   -0.0020 C.ar    1  LIG1        0.0754
     30 N         -10.2086    5.2731   -0.0223 N.ar    1  LIG1       -0.2354
     31 H          -6.3674    6.0423    0.0365 H       1  LIG1        0.0628
     32 N         -10.1933    2.0082   -0.0588 N.1     1  LIG1       -0.1893
     33 C          -9.7721    3.0745   -0.0412 C.1     1  LIG1        0.1198
     34 C          -7.9995    8.1090    0.0390 C.3     1  LIG1       -0.0377
     35 H          -8.7336    8.6976    0.5485 H       1  LIG1        0.0278
     36 H          -7.8915    8.4643   -0.9646 H       1  LIG1        0.0278
     37 H          -7.0620    8.1888    0.5485 H       1  LIG1        0.0278
     38 C         -10.2669    8.8261   -0.0036 C.ar    1  LIG1       -0.0519
     39 C         -11.2869    9.7972   -0.0037 C.ar    1  LIG1       -0.0508
     40 C         -10.6531    7.4701   -0.0035 C.ar    1  LIG1        0.0018
     41 C         -12.6324    9.4365   -0.0044 C.ar    1  LIG1        0.0140
     42 H         -11.0111   10.8494   -0.0036 H       1  LIG1        0.0625
     43 C         -11.9962    7.1094   -0.0042 C.ar    1  LIG1       -0.0365
     44 C         -12.9948    8.0889   -0.0047 C.ar    1  LIG1        0.0344
     45 H         -12.2685    6.0571   -0.0040 H       1  LIG1        0.0636
     46 H          -9.0294    9.2242   -0.0032 H       1  LIG1        0.0624
     47 C         -14.2487    7.7458   -0.0052 C.1     1  LIG1       -0.0690
     48 C         -15.4073    7.4287   -0.0056 C.1     1  LIG1       -0.1139
     49 H         -16.4393    7.1463   -0.0060 H       1  LIG1        0.1232
     50 C         -13.5481   10.3593   -0.0046 C.ar    1  LIG1        0.0511
     51 C         -13.4350   11.7140   -0.0052 C.ar    1  LIG1       -0.0245
     52 C         -14.7613   12.2539   -0.0041 C.ar    1  LIG1       -0.0315
     53 C         -15.6266   11.2054   -0.0047 C.ar    1  LIG1        0.0636
     54 N         -14.8880   10.0436   -0.0046 N.ar    1  LIG1       -0.3528
     55 H         -15.2628    9.1229   -0.0051 H       1  LIG1        0.1660
     56 C         -12.3250   12.3913   -0.0050 C.3     1  LIG1       -0.0377
     57 H         -12.4756   13.3228    0.4994 H       1  LIG1        0.0278
     58 H         -12.0205   12.5772   -1.0138 H       1  LIG1        0.0278
     59 H         -11.5655   11.8312    0.4994 H       1  LIG1        0.0278
     60 H         -15.0827   13.5135   -0.0031 H       1  LIG1        0.0642
     61 C         -16.9264   11.1843   -0.0043 C.ar    1  LIG1        0.0636
     62 C         -17.8250   12.2043    0.0122 C.ar    1  LIG1       -0.0314
     63 C         -19.1332   11.6219    0.0049 C.ar    1  LIG1       -0.0231
     64 C         -18.9765   10.2717   -0.0175 C.ar    1  LIG1        0.0675
     65 N         -17.6271    9.9995   -0.0228 N.ar    1  LIG1       -0.3516
     66 H         -17.2228    9.0915   -0.0381 H       1  LIG1        0.1660
     67 H         -17.5445   13.4735    0.0325 H       1  LIG1        0.0642
     68 C         -20.2645   12.2629    0.0169 C.3     1  LIG1       -0.0376
     69 H         -21.0014   11.6763    0.5246 H       1  LIG1        0.0278
     70 H         -20.5830   12.4433   -0.9886 H       1  LIG1        0.0278
     71 H         -20.1400   13.1965    0.5246 H       1  LIG1        0.0278
     72 C         -19.8619    9.3199   -0.0318 C.ar    1  LIG1        0.0795
     73 C         -21.2200    9.3785   -0.0252 C.ar    1  LIG1        0.0549
     74 C         -21.7063    8.0318   -0.0473 C.ar    1  LIG1       -0.0061
     75 C         -20.6240    7.2095   -0.0682 C.ar    1  LIG1        0.0870
     76 N         -19.4928    7.9940   -0.0583 N.ar    1  LIG1       -0.3494
     77 H         -18.5579    7.6565   -0.0693 H       1  LIG1        0.1661
     78 C         -21.9411   10.4600   -0.0015 C.1     1  LIG1       -0.0672
     79 C         -22.6073   11.4592    0.0204 C.1     1  LIG1       -0.1138
     80 H         -23.2008   12.3494    0.0399 H       1  LIG1        0.1232
     81 C         -22.9524    7.6601   -0.0479 C.3     1  LIG1       -0.0364
     82 H         -23.0447    6.7209    0.4564 H       1  LIG1        0.0279
     83 H         -23.2938    7.5582   -1.0569 H       1  LIG1        0.0279
     84 H         -23.5441    8.3953    0.4563 H       1  LIG1        0.0279
     85 C         -20.5510    5.9118   -0.0926 C.ar    1  LIG1        0.1552
     86 C         -21.4616    4.8757   -0.1110 C.ar    1  LIG1        0.0121
     87 C         -20.6933    3.6485   -0.1348 C.ar    1  LIG1        0.0659
     88 C         -19.3635    4.0163   -0.1294 C.ar    1  LIG1        0.1082
     89 O         -19.2500    5.4067   -0.1036 O.2     1  LIG1       -0.4599
     90 H         -18.2276    3.3841   -0.1424 H       1  LIG1        0.1042
     91 C         -22.7594    4.9567   -0.1080 C.3     1  LIG1       -0.0349
     92 H         -23.1686    4.1069    0.3972 H       1  LIG1        0.0279
     93 H         -23.1177    4.9790   -1.1160 H       1  LIG1        0.0279
     94 H         -23.0598    5.8509    0.3972 H       1  LIG1        0.0279
     95 C         -21.1868    2.4460   -0.1568 C.1     1  LIG1       -0.0662
     96 C         -21.6427    1.3349   -0.1771 C.1     1  LIG1       -0.1138
     97 H         -22.0489    0.3452   -0.1952 H       1  LIG1        0.1232
@<TRIPOS>BOND
     1    93    91    1
     2    83    81    1
     3    58    56    1
     4    11     9    1
     5    70    68    1
     6    36    34    1
     7    97    96    1
     8    96    95    3
     9    95    87    1
    10    90    88    1
    11    87    88   ar
    12    87    86   ar
    13    88    89   ar
    14    86    91    1
    15    86    85   ar
    16    91    94    1
    17    91    92    1
    18    89    85   ar
    19    85    75    1
    20    77    76    1
    21    75    76   ar
    22    75    74   ar
    23    32    33    3
    24    76    72   ar
    25    81    74    1
    26    81    84    1
    27    81    82    1
    28    74    73   ar
    29    33    25    1
    30    66    65    1
    31    72    73   ar
    32    72    64    1
    33    73    78    1
    34    65    64   ar
    35    65    61   ar
    36    30    25   ar
    37    30    29   ar
    38    25    26   ar
    39    64    63   ar
    40    49    48    1
    41    48    47    3
    42    47    44    1
    43    51    56    1
    44    51    50   ar
    45    51    52   ar
    46    55    54    1
    47    56    59    1
    48    56    57    1
    49    44    41   ar
    50    44    43   ar
    51    53    54   ar
    52    53    61    1
    53    53    52   ar
    54    50    54   ar
    55    50    41    1
    56    41    39   ar
    57    61    62   ar
    58    43    45    1
    59    43    40   ar
    60    52    60    1
    61    39    38   ar
    62    39    42    1
    63    38    40   ar
    64    38    46    1
    65    40    29    1
    66    29    28   ar
    67    78    79    3
    68    20    16    1
    69     7     3    1
    70    15     5    1
    71    15    14   ar
    72    15    16   ar
    73    24    23    1
    74    18    19   ar
    75    18    26    1
    76    18    17   ar
    77    23    17    1
    78    13     4    1
    79     5     6   ar
    80     5     4   ar
    81    14    22    1
    82    14    19   ar
    83    16    17   ar
    84    22    21    3
    85    26    27   ar
    86     6     1   ar
    87     4     3   ar
    88     3     2   ar
    89     2     1   ar
    90     2     8    1
    91     1     9    1
    92     9    12    1
    93     9    10    1
    94    63    62   ar
    95    63    68    1
    96    62    67    1
    97    68    71    1
    98    68    69    1
    99    28    27   ar
   100    28    34    1
   101    79    80    1
   102    27    31    1
   103    34    37    1
   104    34    35    1
