@<TRIPOS>MOLECULE
mol_data/noopt/geoms/mol2/6ia6ia-4ia6ia.out
 51 54 0 0 0
SMALL
GASTEIGER

@<TRIPOS>ATOM
      1 C          -4.5775   -2.0270    0.0001 C.ar    1  LIG1        0.0389
      2 C          -3.1706   -2.0270    0.0001 C.ar    1  LIG1       -0.0406
      3 C          -2.5039   -0.8004    0.0001 C.ar    1  LIG1       -0.0581
      4 C          -3.2580    0.3743   -0.0001 C.ar    1  LIG1       -0.0356
      5 C          -4.6612    0.2715   -0.0003 C.ar    1  LIG1        0.0730
      6 N          -5.3207   -0.9034   -0.0001 N.ar    1  LIG1       -0.2518
      7 H          -1.4054   -0.7607   -0.0009 H       1  LIG1        0.0619
      8 H          -2.5135   -3.1487    0.0004 H       1  LIG1        0.0635
      9 C          -5.2433   -3.1440    0.0002 C.3     1  LIG1       -0.0223
     10 H          -4.6754   -3.8976    0.5047 H       1  LIG1        0.0292
     11 H          -5.4259   -3.4505   -1.0086 H       1  LIG1        0.0292
     12 H          -6.1763   -3.0029    0.5046 H       1  LIG1        0.0292
     13 H          -2.6846    1.5410   -0.0003 H       1  LIG1        0.0639
     14 C          -4.8196    2.6153   -0.0003 C.ar    1  LIG1        0.0480
     15 C          -5.4065    1.3366   -0.0004 C.ar    1  LIG1        0.0214
     16 C          -6.7994    1.2424   -0.0003 C.ar    1  LIG1       -0.0488
     17 C          -7.5524    2.4178   -0.0003 C.ar    1  LIG1       -0.0350
     18 C          -6.8736    3.6502   -0.0004 C.ar    1  LIG1        0.0716
     19 N          -5.5307    3.7594   -0.0003 N.ar    1  LIG1       -0.2512
     20 H          -7.2937    0.2606   -0.0014 H       1  LIG1        0.0625
     21 C          -3.5268    2.7544   -0.0003 C.3     1  LIG1       -0.0217
     22 H          -3.2656    3.6611    0.5042 H       1  LIG1        0.0293
     23 H          -3.1721    2.7926   -1.0091 H       1  LIG1        0.0293
     24 H          -3.0787    1.9238    0.5041 H       1  LIG1        0.0293
     25 H          -8.8520    2.3834   -0.0004 H       1  LIG1        0.0639
     26 C          -6.8310    5.9958    0.0005 C.ar    1  LIG1       -0.0407
     27 C          -7.5886    7.1830    0.0022 C.ar    1  LIG1       -0.0504
     28 C          -7.5307    4.7718   -0.0003 C.ar    1  LIG1        0.0033
     29 C          -8.9814    7.1551    0.0023 C.ar    1  LIG1       -0.0159
     30 H          -7.0688    8.1385    0.0030 H       1  LIG1        0.0626
     31 C          -8.9211    4.7434   -0.0001 C.ar    1  LIG1       -0.0517
     32 C          -9.6560    5.9336    0.0011 C.ar    1  LIG1       -0.0533
     33 H          -9.4376    3.7869   -0.0006 H       1  LIG1        0.0624
     34 C          -5.5338    6.0859    0.0002 C.3     1  LIG1       -0.0391
     35 H          -5.2384    6.9822    0.5045 H       1  LIG1        0.0278
     36 H          -5.1783    6.1107   -1.0088 H       1  LIG1        0.0278
     37 H          -5.1174    5.2390    0.5044 H       1  LIG1        0.0278
     38 H         -10.9556    5.9008    0.0014 H       1  LIG1        0.0624
     39 C         -11.0562    8.2567    0.0047 C.ar    1  LIG1        0.0459
     40 C          -9.6493    8.2703    0.0037 C.ar    1  LIG1        0.0032
     41 C          -8.9946    9.5034    0.0047 C.ar    1  LIG1       -0.0509
     42 C          -9.7600   10.6707    0.0063 C.ar    1  LIG1       -0.0430
     43 C         -11.1621   10.5543    0.0069 C.ar    1  LIG1        0.0279
     44 N         -11.8102    9.3730    0.0062 N.ar    1  LIG1       -0.2596
     45 H          -7.8965    9.5537    0.0030 H       1  LIG1        0.0625
     46 H         -11.9177   11.6121    0.0085 H       1  LIG1        0.0829
     47 C         -11.7110    7.1333    0.0040 C.3     1  LIG1       -0.0218
     48 H         -11.1361    6.3850    0.5082 H       1  LIG1        0.0293
     49 H         -11.8903    6.8256   -1.0051 H       1  LIG1        0.0293
     50 H         -12.6456    7.2650    0.5081 H       1  LIG1        0.0293
     51 H          -9.1980   11.8429    0.0071 H       1  LIG1        0.0633
@<TRIPOS>BOND
     1    23    21    1
     2    36    34    1
     3    11     9    1
     4    49    47    1
     5    20    16    1
     6     7     3    1
     7    33    31    1
     8    15    16   ar
     9    15     5    1
    10    15    14   ar
    11    25    17    1
    12    18    17   ar
    13    18    28    1
    14    18    19   ar
    15    16    17   ar
    16     5     6   ar
    17     5     4   ar
    18    13     4    1
    19    28    31   ar
    20    28    26   ar
    21    14    19   ar
    22    14    21    1
    23    21    24    1
    24    21    22    1
    25     6     1   ar
    26     4     3   ar
    27    31    32   ar
    28     3     2   ar
    29     2     1   ar
    30     2     8    1
    31     1     9    1
    32    34    26    1
    33    34    37    1
    34    34    35    1
    35     9    12    1
    36     9    10    1
    37    26    27   ar
    38    32    38    1
    39    32    29   ar
    40    27    29   ar
    41    27    30    1
    42    29    40    1
    43    45    41    1
    44    40    39   ar
    45    40    41   ar
    46    47    39    1
    47    47    50    1
    48    47    48    1
    49    39    44   ar
    50    41    42   ar
    51    44    43   ar
    52    42    43   ar
    53    42    51    1
    54    43    46    1
