@<TRIPOS>MOLECULE
mol_data/noopt/geoms/mol2/6ia6ia6ia.out
 38 40 0 0 0
SMALL
GASTEIGER

@<TRIPOS>ATOM
      1 C          -4.5775   -2.0270    0.0001 C.ar    1  LIG1        0.0389
      2 C          -3.1706   -2.0270    0.0001 C.ar    1  LIG1       -0.0406
      3 C          -2.5039   -0.8004    0.0001 C.ar    1  LIG1       -0.0581
      4 C          -3.2580    0.3743   -0.0001 C.ar    1  LIG1       -0.0356
      5 C          -4.6612    0.2715   -0.0003 C.ar    1  LIG1        0.0730
      6 N          -5.3207   -0.9034   -0.0001 N.ar    1  LIG1       -0.2518
      7 H          -1.4054   -0.7607   -0.0009 H       1  LIG1        0.0619
      8 H          -2.5135   -3.1487    0.0004 H       1  LIG1        0.0635
      9 C          -5.2433   -3.1440    0.0002 C.3     1  LIG1       -0.0223
     10 H          -4.6754   -3.8976    0.5047 H       1  LIG1        0.0292
     11 H          -5.4259   -3.4505   -1.0086 H       1  LIG1        0.0292
     12 H          -6.1763   -3.0029    0.5046 H       1  LIG1        0.0292
     13 H          -2.6846    1.5410   -0.0003 H       1  LIG1        0.0639
     14 C          -6.8088    1.2233   -0.0003 C.ar    1  LIG1        0.0480
     15 C          -5.4065    1.3366   -0.0004 C.ar    1  LIG1        0.0214
     16 C          -4.8408    2.6129   -0.0003 C.ar    1  LIG1       -0.0488
     17 C          -5.6871    3.7231   -0.0003 C.ar    1  LIG1       -0.0350
     18 C          -7.0774    3.5076   -0.0004 C.ar    1  LIG1        0.0730
     19 N          -7.6401    2.2834   -0.0003 N.ar    1  LIG1       -0.2512
     20 H          -3.7491    2.7410   -0.0014 H       1  LIG1        0.0625
     21 C          -7.3825    0.0563   -0.0003 C.3     1  LIG1       -0.0217
     22 H          -6.7558   -0.6491    0.5041 H       1  LIG1        0.0293
     23 H          -7.5398   -0.2638   -1.0091 H       1  LIG1        0.0293
     24 H          -8.3239    0.1217    0.5041 H       1  LIG1        0.0293
     25 H          -5.2095    4.9322   -0.0004 H       1  LIG1        0.0639
     26 C          -9.2948    4.2833   -0.0001 C.ar    1  LIG1        0.0473
     27 C          -7.9061    4.5092   -0.0003 C.ar    1  LIG1        0.0214
     28 C          -7.4450    5.8270   -0.0001 C.ar    1  LIG1       -0.0494
     29 C          -8.3780    6.8653    0.0002 C.ar    1  LIG1       -0.0430
     30 C          -9.7465    6.5385    0.0002 C.ar    1  LIG1        0.0279
     31 N         -10.2087    5.2730    0.0002 N.ar    1  LIG1       -0.2595
     32 H          -6.3672    6.0425   -0.0012 H       1  LIG1        0.0625
     33 H         -10.6531    7.4701    0.0005 H       1  LIG1        0.0829
     34 C          -9.7725    3.0739   -0.0002 C.3     1  LIG1       -0.0217
     35 H          -9.0910    2.4212    0.5042 H       1  LIG1        0.0293
     36 H          -9.9035    2.7422   -1.0090 H       1  LIG1        0.0293
     37 H         -10.7161    3.0632    0.5042 H       1  LIG1        0.0293
     38 H          -7.9994    8.1090    0.0002 H       1  LIG1        0.0633
@<TRIPOS>BOND
     1    23    21    1
     2    36    34    1
     3    11     9    1
     4    20    16    1
     5    32    28    1
     6     7     3    1
     7    15     5    1
     8    15    14   ar
     9    15    16   ar
    10    18    19   ar
    11    18    27    1
    12    18    17   ar
    13    25    17    1
    14     5     6   ar
    15     5     4   ar
    16    13     4    1
    17    14    21    1
    18    14    19   ar
    19    16    17   ar
    20    21    24    1
    21    21    22    1
    22    27    26   ar
    23    27    28   ar
    24    34    26    1
    25    34    37    1
    26    34    35    1
    27     6     1   ar
    28     4     3   ar
    29    26    31   ar
    30    28    29   ar
    31     1     2   ar
    32     1     9    1
    33     3     2   ar
    34     2     8    1
    35    31    30   ar
    36    30    29   ar
    37    30    33    1
    38    29    38    1
    39     9    12    1
    40     9    10    1
