@<TRIPOS>MOLECULE
mol_data/noopt/geoms/mol2/6id13el-13ah-4dd.out
 51 55 0 0 0
SMALL
GASTEIGER

@<TRIPOS>ATOM
      1 C          -4.5775   -2.0270    0.0001 C.ar    1  LIG1        0.0386
      2 C          -3.1706   -2.0270    0.0001 C.ar    1  LIG1       -0.0403
      3 C          -2.5039   -0.8004    0.0001 C.ar    1  LIG1       -0.0528
      4 C          -3.2580    0.3743   -0.0001 C.ar    1  LIG1        0.0066
      5 C          -4.6612    0.2715   -0.0003 C.ar    1  LIG1        0.0783
      6 N          -5.3207   -0.9034   -0.0001 N.ar    1  LIG1       -0.2538
      7 H          -1.4054   -0.7607   -0.0009 H       1  LIG1        0.0622
      8 H          -2.5135   -3.1487    0.0004 H       1  LIG1        0.0635
      9 C          -5.2433   -3.1440    0.0002 C.3     1  LIG1       -0.0223
     10 H          -4.6754   -3.8976    0.5047 H       1  LIG1        0.0292
     11 H          -5.4259   -3.4505   -1.0086 H       1  LIG1        0.0292
     12 H          -6.1763   -3.0029    0.5046 H       1  LIG1        0.0292
     13 N          -2.1789    2.5700   -0.0005 N.pl3   1  LIG1       -0.2336
     14 C          -2.6846    1.5410   -0.0003 C.3     1  LIG1        0.1391
     15 C          -5.4065    1.3366   -0.0004 C.3     1  LIG1        0.1427
     16 C          -5.0647    2.6523    0.0158 C.2     1  LIG1        0.0713
     17 C          -6.2798    3.4100    0.0080 C.2     1  LIG1        0.1561
     18 C          -7.3107    2.5241   -0.0144 C.2     1  LIG1        0.0950
     19 N          -6.7805    1.2536   -0.0191 N.pl3   1  LIG1       -0.3220
     20 H          -7.3063    0.4102   -0.0343 H       1  LIG1        0.1475
     21 C          -3.8561    3.1306    0.0362 C.1     1  LIG1       -0.0933
     22 C          -2.7393    3.5726    0.0551 C.2     1  LIG1        0.0549
     23 H          -1.7446    3.9664    0.0719 H       1  LIG1        0.0888
     24 O          -6.3823    4.7059    0.0196 O.2     1  LIG1       -0.4922
     25 C          -5.0761    5.2879    0.0238 C.3     1  LIG1        0.0789
     26 H          -5.1608    6.3545    0.0332 H       1  LIG1        0.0660
     27 H          -4.5443    4.9647    0.8943 H       1  LIG1        0.0660
     28 H          -4.5456    4.9800   -0.8529 H       1  LIG1        0.0660
     29 C          -8.5951    2.7246   -0.0290 C.ar    1  LIG1        0.0663
     30 C          -9.3068    3.8827   -0.0392 C.ar    1  LIG1       -0.0137
     31 C         -10.6950    3.5314   -0.0527 C.ar    1  LIG1        0.0508
     32 C         -10.7705    2.1740   -0.0518 C.ar    1  LIG1        0.0692
     33 N          -9.4871    1.6761   -0.0369 N.ar    1  LIG1       -0.3516
     34 H          -9.2433    0.7124   -0.0330 H       1  LIG1        0.1660
     35 H          -8.8144    5.0858   -0.0358 H       1  LIG1        0.0658
     36 N         -11.7004    4.3554   -0.0641 N.pl3   1  LIG1       -0.3563
     37 H         -11.4374    5.1956   -0.5384 H       1  LIG1        0.1424
     38 H         -12.4726    3.9327   -0.5385 H       1  LIG1        0.1424
     39 C         -13.1042    1.9340   -0.0658 C.ar    1  LIG1        0.0610
     40 C         -14.1915    1.0390   -0.0746 C.ar    1  LIG1       -0.0425
     41 C         -11.8048    1.3867   -0.0614 C.ar    1  LIG1        0.0187
     42 C         -13.9960   -0.3403   -0.0795 C.ar    1  LIG1       -0.0431
     43 H         -15.2026    1.4400   -0.0779 H       1  LIG1        0.0631
     44 C         -11.6092    0.0098   -0.0662 C.ar    1  LIG1       -0.0339
     45 C         -12.7022   -0.8629   -0.0754 C.ar    1  LIG1        0.0525
     46 H         -10.5974   -0.3877   -0.0626 H       1  LIG1        0.0637
     47 H         -15.0228   -1.1377   -0.0877 H       1  LIG1        0.0631
     48 N         -13.5663    4.3365   -0.0584 N.1     1  LIG1       -0.1908
     49 C         -13.3497    3.2106   -0.0618 C.1     1  LIG1        0.0998
     50 N         -12.3464   -3.2835   -0.0836 N.1     1  LIG1       -0.1909
     51 C         -12.5132   -2.1491   -0.0797 C.1     1  LIG1        0.0992
@<TRIPOS>BOND
     1    11     9    1
     2    28    25    1
     3    38    36    1
     4    37    36    1
     5    47    42    1
     6    50    51    3
     7    51    45    1
     8    42    45   ar
     9    42    40   ar
    10    43    40    1
    11    45    44   ar
    12    40    39   ar
    13    44    46    1
    14    44    41   ar
    15    39    49    1
    16    39    41   ar
    17    36    31    1
    18    49    48    3
    19    41    32    1
    20    31    32   ar
    21    31    30   ar
    22    32    33   ar
    23    30    35    1
    24    30    29   ar
    25    33    34    1
    26    33    29   ar
    27    20    19    1
    28    29    18    1
    29    19    18    1
    30    19    15    1
    31    18    17    2
    32     7     3    1
    33    13    14    1
    34    13    22    1
    35    15     5    1
    36    15    16    1
    37    14     4    1
    38     5     6   ar
    39     5     4   ar
    40     6     1   ar
    41     4     3   ar
    42     1     2   ar
    43     1     9    1
    44     3     2   ar
    45     2     8    1
    46     9    12    1
    47     9    10    1
    48    17    16    1
    49    17    24    1
    50    16    21    2
    51    24    25    1
    52    25    26    1
    53    25    27    1
    54    21    22    2
    55    22    23    1
