@<TRIPOS>MOLECULE
mol_data/noopt/geoms/mol2/6id13ea(240)13ef(60)12eh(280).out
 47 50 0 0 0
SMALL
GASTEIGER

@<TRIPOS>ATOM
      1 C          -4.5775   -2.0270    0.0001 C.ar    1  LIG1        0.0390
      2 C          -3.1706   -2.0270    0.0001 C.ar    1  LIG1       -0.0394
      3 C          -2.5039   -0.8004    0.0001 C.ar    1  LIG1       -0.0405
      4 C          -3.2580    0.3743   -0.0001 C.ar    1  LIG1        0.0792
      5 C          -4.6612    0.2715   -0.0003 C.ar    1  LIG1        0.1059
      6 N          -5.3207   -0.9034   -0.0001 N.ar    1  LIG1       -0.2491
      7 H          -1.4054   -0.7607   -0.0009 H       1  LIG1        0.0632
      8 H          -2.5135   -3.1487    0.0004 H       1  LIG1        0.0636
      9 C          -5.2433   -3.1440    0.0002 C.3     1  LIG1       -0.0223
     10 H          -4.6754   -3.8976    0.5047 H       1  LIG1        0.0292
     11 H          -5.4259   -3.4505   -1.0086 H       1  LIG1        0.0292
     12 H          -6.1763   -3.0029    0.5046 H       1  LIG1        0.0292
     13 N          -2.1789    2.5700   -0.0005 N.1     1  LIG1       -0.1908
     14 C          -2.6846    1.5410   -0.0003 C.1     1  LIG1        0.1014
     15 C          -5.4065    1.3366   -0.0004 C.ar    1  LIG1        0.0823
     16 C          -6.3630    1.7437   -0.8764 C.ar    1  LIG1        0.0521
     17 C          -6.8730    2.9948   -0.4019 C.ar    1  LIG1       -0.0189
     18 C          -6.2069    3.2965    0.7441 C.ar    1  LIG1        0.0659
     19 N          -5.3078    2.2842    0.9933 N.ar    1  LIG1       -0.3508
     20 H          -4.6865    2.2436    1.7682 H       1  LIG1        0.1660
     21 C          -6.7413    1.1115   -1.9475 C.1     1  LIG1       -0.0675
     22 C          -7.0908    0.5274   -2.9372 C.1     1  LIG1       -0.1138
     23 H          -7.4022    0.0071   -3.8188 H       1  LIG1        0.1232
     24 H          -7.8017    3.7125   -0.9608 H       1  LIG1        0.0652
     25 C          -6.3145    4.3205    1.5378 C.ar    1  LIG1        0.0827
     26 C          -5.7844    4.5409    2.7700 C.ar    1  LIG1        0.0934
     27 C          -6.2215    5.8355    3.1983 C.ar    1  LIG1        0.1612
     28 C          -6.9982    6.3501    2.2083 C.ar    1  LIG1        0.1270
     29 N          -7.0581    5.4256    1.1900 N.ar    1  LIG1       -0.3467
     30 H          -7.5583    5.5384    0.3384 H       1  LIG1        0.1662
     31 C          -5.0225    3.7237    3.4347 C.1     1  LIG1       -0.0638
     32 C          -4.3186    2.9687    4.0488 C.1     1  LIG1       -0.1137
     33 H          -3.6915    2.2961    4.5959 H       1  LIG1        0.1232
     34 O          -5.9311    6.4154    4.3250 O.3     1  LIG1       -0.5034
     35 H          -6.6686    6.9636    4.6027 H       1  LIG1        0.2923
     36 C          -7.6195    7.4892    2.1294 C.ar    1  LIG1        0.1716
     37 C          -7.8943    8.3919    1.1231 C.ar    1  LIG1        0.0925
     38 C          -8.6415    9.4741    1.7293 C.ar    1  LIG1        0.0791
     39 C          -8.7738    9.1608    3.0664 C.ar    1  LIG1        0.1145
     40 O          -8.1519    7.9415    3.3376 O.2     1  LIG1       -0.4582
     41 H          -9.3276    9.7235    4.0992 H       1  LIG1        0.1049
     42 C          -7.5604    8.3117   -0.1307 C.1     1  LIG1       -0.0640
     43 C          -7.2518    8.2377   -1.2892 C.1     1  LIG1       -0.1137
     44 H          -6.9769    8.1717   -2.3212 H       1  LIG1        0.1232
     45 N          -9.0891   10.5258    1.1099 N.pl3   1  LIG1       -0.3546
     46 H          -8.3647   10.9085    0.5366 H       1  LIG1        0.1424
     47 H          -9.8672   10.2690    0.5366 H       1  LIG1        0.1424
@<TRIPOS>BOND
     1    23    22    1
     2    22    21    3
     3    44    43    1
     4    21    16    1
     5    43    42    3
     6    11     9    1
     7    24    17    1
     8    16    17   ar
     9    16    15   ar
    10    17    18   ar
    11    42    37    1
    12     7     3    1
    13    13    14    3
    14    15     5    1
    15    15    19   ar
    16     5     6   ar
    17     5     4   ar
    18    14     4    1
    19     6     1   ar
    20     4     3   ar
    21     1     2   ar
    22     1     9    1
    23     2     3   ar
    24     2     8    1
    25     9    12    1
    26     9    10    1
    27    30    29    1
    28    47    45    1
    29    46    45    1
    30    18    19   ar
    31    18    25    1
    32    19    20    1
    33    45    38    1
    34    37    38   ar
    35    37    36   ar
    36    29    25   ar
    37    29    28   ar
    38    25    26   ar
    39    38    39   ar
    40    36    28    1
    41    36    40   ar
    42    28    27   ar
    43    26    27   ar
    44    26    31    1
    45    39    40   ar
    46    39    41    1
    47    27    34    1
    48    31    32    3
    49    32    33    1
    50    34    35    1
