@<TRIPOS>MOLECULE
mol_data/noopt/geoms/mol2/6id6df-4if-4fd.out
 52 53 0 0 0
SMALL
GASTEIGER

@<TRIPOS>ATOM
      1 C          -4.5775   -2.0270    0.0001 C.ar    1  LIG1        0.0390
      2 C          -3.1706   -2.0270    0.0001 C.ar    1  LIG1       -0.0394
      3 C          -2.5039   -0.8004    0.0001 C.ar    1  LIG1       -0.0406
      4 C          -3.2580    0.3743   -0.0001 C.ar    1  LIG1        0.0778
      5 C          -4.6612    0.2715   -0.0003 C.ar    1  LIG1        0.0913
      6 N          -5.3207   -0.9034   -0.0001 N.ar    1  LIG1       -0.2505
      7 H          -1.4054   -0.7607   -0.0009 H       1  LIG1        0.0632
      8 H          -2.5135   -3.1487    0.0004 H       1  LIG1        0.0636
      9 C          -5.2433   -3.1440    0.0002 C.3     1  LIG1       -0.0223
     10 H          -4.6754   -3.8976    0.5047 H       1  LIG1        0.0292
     11 H          -5.4259   -3.4505   -1.0086 H       1  LIG1        0.0292
     12 H          -6.1763   -3.0029    0.5046 H       1  LIG1        0.0292
     13 N          -2.1789    2.5700   -0.0005 N.1     1  LIG1       -0.1908
     14 C          -2.6846    1.5410   -0.0003 C.1     1  LIG1        0.1013
     15 C          -6.8087    1.2234   -0.0215 C.ar    1  LIG1        0.1499
     16 C          -5.4065    1.3366   -0.0004 C.ar    1  LIG1        0.0381
     17 C          -4.8409    2.6128    0.0206 C.ar    1  LIG1       -0.0400
     18 C          -5.6872    3.7230    0.0196 C.ar    1  LIG1        0.0109
     19 C          -7.0774    3.5076   -0.0025 C.ar    1  LIG1        0.0806
     20 N          -7.6400    2.2835   -0.0227 N.ar    1  LIG1       -0.2351
     21 H          -3.7493    2.7408    0.0363 H       1  LIG1        0.0632
     22 N          -7.8877   -0.9721   -0.0588 N.1     1  LIG1       -0.1893
     23 C          -7.3820    0.0568   -0.0413 C.1     1  LIG1        0.1198
     24 O          -5.2098    4.9320    0.0384 O.3     2  HOH2       -0.2528
     25 H          -5.9338    5.5624    0.0430 H       3  UNK3        0.0000
     26 C          -7.4121    5.8296    0.0169 C.ar    1  LIG1       -0.0371
     27 C          -8.3505    6.8797    0.0156 C.ar    1  LIG1       -0.0466
     28 C          -7.9061    4.5092   -0.0043 C.ar    1  LIG1        0.0076
     29 C          -9.7206    6.6286   -0.0064 C.ar    1  LIG1        0.0274
     30 H          -7.9910    7.9061    0.0319 H       1  LIG1        0.0628
     31 C          -9.2737    4.2579   -0.0262 C.ar    1  LIG1       -0.0101
     32 C         -10.1901    5.3147   -0.0276 C.ar    1  LIG1        0.1253
     33 H          -9.6297    3.2310   -0.0422 H       1  LIG1        0.0661
     34 C          -6.1464    6.1267    0.0377 C.3     1  LIG1       -0.0230
     35 H          -6.0067    7.0569    0.5477 H       1  LIG1        0.0317
     36 H          -5.7835    6.2119   -0.9654 H       1  LIG1        0.0317
     37 H          -5.6074    5.3557    0.5476 H       0  HOH0        0.2528
     38 O         -11.4675    5.0737   -0.0480 O.3     1  LIG1       -0.5061
     39 H         -11.6146    4.1251   -0.0530 H       1  LIG1        0.2922
     40 C         -10.0777    8.9473   -0.0066 C.ar    1  LIG1        0.1247
     41 C         -11.0262    9.9882   -0.0058 C.ar    1  LIG1       -0.0184
     42 C         -10.5589    7.6221   -0.0070 C.ar    1  LIG1        0.0283
     43 C         -12.3939    9.7237   -0.0060 C.ar    1  LIG1       -0.0409
     44 H         -10.6766   11.0182   -0.0053 H       1  LIG1        0.0655
     45 C         -11.9242    7.3574   -0.0073 C.ar    1  LIG1       -0.0330
     46 C         -12.8509    8.4052   -0.0068 C.ar    1  LIG1        0.0526
     47 H         -12.2704    6.3270   -0.0075 H       1  LIG1        0.0638
     48 H         -13.2419   10.7091   -0.0054 H       1  LIG1        0.0631
     49 O          -8.8150    9.2567   -0.0067 O.3     1  LIG1       -0.5062
     50 H          -8.7192   10.2119   -0.0067 H       1  LIG1        0.2922
     51 N         -15.2505    7.9283   -0.0069 N.1     1  LIG1       -0.1909
     52 C         -14.1259    8.1518   -0.0069 C.1     1  LIG1        0.0992
@<TRIPOS>BOND
     1    11     9    1
     2    36    34    1
     3    22    23    3
     4    39    38    1
     5    38    32    1
     6    33    31    1
     7    23    15    1
     8    32    31   ar
     9    32    29   ar
    10    31    28   ar
    11    20    15   ar
    12    20    19   ar
    13    15    16   ar
    14    47    45    1
    15    45    42   ar
    16    45    46   ar
    17    42    40   ar
    18    42    29    1
    19    51    52    3
    20    52    46    1
    21    46    43   ar
    22    50    49    1
    23    49    40    1
    24    40    41   ar
    25    29    27   ar
    26    43    41   ar
    27    43    48    1
    28    41    44    1
    29    28    19    1
    30    28    26   ar
    31    19    18   ar
    32     7     3    1
    33    13    14    3
    34    16     5    1
    35    16    17   ar
    36     5     6   ar
    37     5     4   ar
    38    14     4    1
    39     6     1   ar
    40     4     3   ar
    41     1     2   ar
    42     1     9    1
    43     2     3   ar
    44     2     8    1
    45     9    12    1
    46     9    10    1
    47    27    26   ar
    48    27    30    1
    49    26    34    1
    50    18    17   ar
    51    17    21    1
    52    34    35    1
    53    24    37    1
