@<TRIPOS>MOLECULE
mol_data/noopt/geoms/mol2/6id6id-.out
 28 29 0 0 0
SMALL
GASTEIGER

@<TRIPOS>ATOM
      1 C          -4.5775   -2.0270    0.0001 C.ar    1  LIG1        0.0390
      2 C          -3.1706   -2.0270    0.0001 C.ar    1  LIG1       -0.0400
      3 C          -2.5039   -0.8004    0.0001 C.ar    1  LIG1       -0.0494
      4 C          -3.2580    0.3743   -0.0001 C.ar    1  LIG1        0.0208
      5 C          -4.6612    0.2715   -0.0003 C.ar    1  LIG1        0.0816
      6 N          -5.3207   -0.9034   -0.0001 N.ar    1  LIG1       -0.2512
      7 H          -1.4054   -0.7607   -0.0009 H       1  LIG1        0.0625
      8 H          -2.5135   -3.1487    0.0004 H       1  LIG1        0.0636
      9 C          -5.2433   -3.1440    0.0002 C.3     1  LIG1       -0.0223
     10 H          -4.6754   -3.8976    0.5047 H       1  LIG1        0.0292
     11 H          -5.4259   -3.4505   -1.0086 H       1  LIG1        0.0292
     12 H          -6.1763   -3.0029    0.5046 H       1  LIG1        0.0292
     13 N          -2.1789    2.5700   -0.0005 N.2     1  LIG1       -0.1570
     14 C          -2.6846    1.5410   -0.0003 C.2     1  LIG1        0.0591
     15 C          -4.8196    2.6153   -0.0003 C.ar    1  LIG1        0.0509
     16 C          -5.4065    1.3366   -0.0004 C.ar    1  LIG1        0.0235
     17 C          -6.7994    1.2424   -0.0003 C.ar    1  LIG1       -0.0320
     18 C          -7.5524    2.4178   -0.0003 C.ar    1  LIG1        0.0705
     19 C          -6.8736    3.6502   -0.0004 C.ar    1  LIG1        0.0453
     20 N          -5.5307    3.7594   -0.0003 N.ar    1  LIG1       -0.2579
     21 H          -7.2937    0.2606   -0.0014 H       1  LIG1        0.0638
     22 H          -7.5307    4.7719   -0.0003 H       1  LIG1        0.0843
     23 C          -3.5268    2.7544   -0.0003 C.3     1  LIG1       -0.0043
     24 H          -3.2656    3.6611    0.5042 H       1  LIG1        0.0332
     25 H          -3.1721    2.7926   -1.0091 H       1  LIG1        0.0332
     26 H          -3.0787    1.9238    0.5041 H       1  LIG1        0.0855
     27 N          -9.9982    2.3530   -0.0005 N.1     1  LIG1       -0.1908
     28 C          -8.8520    2.3834   -0.0004 C.1     1  LIG1        0.1007
@<TRIPOS>BOND
     1    25    23    1
     2    11     9    1
     3    21    17    1
     4     7     3    1
     5    27    28    3
     6    13    14    2
     7    16    17   ar
     8    16     5    1
     9    16    15   ar
    10    28    18    1
    11    19    18   ar
    12    19    22    1
    13    19    20   ar
    14    17    18   ar
    15     5     6   ar
    16     5     4   ar
    17    14     4    1
    18    14    26    1
    19    15    20   ar
    20    15    23    1
    21    23    24    1
    22     6     1   ar
    23     4     3   ar
    24     1     2   ar
    25     1     9    1
    26     3     2   ar
    27     2     8    1
    28     9    12    1
    29     9    10    1
