@<TRIPOS>MOLECULE
mol_data/noopt/geoms/mol2/6id6id-6id-6id-.out
 54 57 0 0 0
SMALL
GASTEIGER

@<TRIPOS>ATOM
      1 C          -4.5775   -2.0270    0.0001 C.ar    1  LIG1        0.0390
      2 C          -3.1706   -2.0270    0.0001 C.ar    1  LIG1       -0.0400
      3 C          -2.5039   -0.8004    0.0001 C.ar    1  LIG1       -0.0494
      4 C          -3.2580    0.3743   -0.0001 C.ar    1  LIG1        0.0208
      5 C          -4.6612    0.2715   -0.0003 C.ar    1  LIG1        0.0816
      6 N          -5.3207   -0.9034   -0.0001 N.ar    1  LIG1       -0.2512
      7 H          -1.4054   -0.7607   -0.0009 H       1  LIG1        0.0625
      8 H          -2.5135   -3.1487    0.0004 H       1  LIG1        0.0636
      9 C          -5.2433   -3.1440    0.0002 C.3     1  LIG1       -0.0223
     10 H          -4.6754   -3.8976    0.5047 H       1  LIG1        0.0292
     11 H          -5.4259   -3.4505   -1.0086 H       1  LIG1        0.0292
     12 H          -6.1763   -3.0029    0.5046 H       1  LIG1        0.0292
     13 N          -2.1789    2.5700   -0.0005 N.2     1  LIG1       -0.1570
     14 C          -2.6846    1.5410   -0.0003 C.2     1  LIG1        0.0591
     15 C          -4.8196    2.6153   -0.0003 C.ar    1  LIG1        0.0516
     16 C          -5.4065    1.3366   -0.0004 C.ar    1  LIG1        0.0235
     17 C          -6.7994    1.2424   -0.0003 C.ar    1  LIG1       -0.0313
     18 C          -7.5524    2.4178   -0.0003 C.ar    1  LIG1        0.0784
     19 C          -6.8736    3.6502   -0.0004 C.ar    1  LIG1        0.0904
     20 N          -5.5307    3.7594   -0.0003 N.ar    1  LIG1       -0.2496
     21 H          -7.2937    0.2606   -0.0014 H       1  LIG1        0.0638
     22 C          -3.5268    2.7544   -0.0003 C.3     1  LIG1       -0.0043
     23 H          -3.2656    3.6611    0.5042 H       1  LIG1        0.0332
     24 H          -3.1721    2.7926   -1.0091 H       1  LIG1        0.0332
     25 H          -3.0787    1.9238    0.5041 H       1  LIG1        0.0855
     26 N          -9.9982    2.3530   -0.0005 N.1     1  LIG1       -0.1908
     27 C          -8.8520    2.3834   -0.0004 C.1     1  LIG1        0.1013
     28 C          -6.8427    5.9991   -0.0000 C.ar    1  LIG1        0.0482
     29 C          -7.5307    4.7719   -0.0003 C.ar    1  LIG1        0.0239
     30 C          -8.9267    4.7902   -0.0001 C.ar    1  LIG1       -0.0313
     31 C          -9.5826    6.0224    0.0002 C.ar    1  LIG1        0.0784
     32 C          -8.8067    7.1961    0.0002 C.ar    1  LIG1        0.0904
     33 N          -7.4594    7.1968    0.0002 N.ar    1  LIG1       -0.2499
     34 H          -9.4985    3.8514   -0.0012 H       1  LIG1        0.0638
     35 C          -5.5429    6.0336   -0.0001 C.3     1  LIG1       -0.0217
     36 H          -5.2095    6.9164    0.5043 H       1  LIG1        0.0293
     37 H          -5.1864    6.0431   -1.0090 H       1  LIG1        0.0293
     38 H          -5.1632    5.1697    0.5042 H       1  LIG1        0.0293
     39 N         -12.0256    6.1548    0.0002 N.1     1  LIG1       -0.1908
     40 C         -10.8807    6.0928    0.0002 C.1     1  LIG1        0.1013
     41 C          -8.5867    9.5349    0.0008 C.ar    1  LIG1        0.0475
     42 C          -9.3714    8.3671    0.0005 C.ar    1  LIG1        0.0238
     43 C         -10.7613    8.4977    0.0008 C.ar    1  LIG1       -0.0319
     44 C         -11.3158    9.7788    0.0012 C.ar    1  LIG1        0.0705
     45 C         -10.4479   10.8862    0.0013 C.ar    1  LIG1        0.0452
     46 N          -9.1049   10.7784    0.0012 N.ar    1  LIG1       -0.2582
     47 H         -11.4069    7.6081   -0.0005 H       1  LIG1        0.0638
     48 H         -10.9164   12.0988    0.0018 H       1  LIG1        0.0843
     49 C          -7.2883    9.4646    0.0006 C.3     1  LIG1       -0.0217
     50 H          -6.8849   10.3176    0.5050 H       1  LIG1        0.0293
     51 H          -6.9323    9.4454   -1.0083 H       1  LIG1        0.0293
     52 H          -6.9794    8.5729    0.5049 H       1  LIG1        0.0293
     53 N         -13.7402   10.1076    0.0015 N.1     1  LIG1       -0.1908
     54 C         -12.6040    9.9535    0.0014 C.1     1  LIG1        0.1007
@<TRIPOS>BOND
     1    24    22    1
     2    37    35    1
     3    11     9    1
     4    51    49    1
     5    21    17    1
     6    34    30    1
     7     7     3    1
     8    26    27    3
     9    13    14    2
    10    47    43    1
    11    16    17   ar
    12    16     5    1
    13    16    15   ar
    14    27    18    1
    15    19    18   ar
    16    19    29    1
    17    19    20   ar
    18    17    18   ar
    19    14     4    1
    20    14    25    1
    21     5     6   ar
    22     5     4   ar
    23    29    30   ar
    24    29    28   ar
    25    15    20   ar
    26    15    22    1
    27    22    23    1
    28    35    28    1
    29    35    38    1
    30    35    36    1
    31     6     1   ar
    32     4     3   ar
    33    30    31   ar
    34    28    33   ar
    35     1     2   ar
    36     1     9    1
    37     2     3   ar
    38     2     8    1
    39    31    32   ar
    40    31    40    1
    41    32    33   ar
    42    32    42    1
    43    40    39    3
    44     9    12    1
    45     9    10    1
    46    42    43   ar
    47    42    41   ar
    48    49    41    1
    49    49    52    1
    50    49    50    1
    51    43    44   ar
    52    41    46   ar
    53    44    45   ar
    54    44    54    1
    55    46    45   ar
    56    45    48    1
    57    54    53    3
