@<TRIPOS>MOLECULE
mol_data/noopt/geoms/mol2/6id6id6id6id-.out
 54 57 0 0 0
SMALL
GASTEIGER

@<TRIPOS>ATOM
      1 C          -4.5775   -2.0270    0.0001 C.ar    1  LIG1        0.0390
      2 C          -3.1706   -2.0270    0.0001 C.ar    1  LIG1       -0.0394
      3 C          -2.5039   -0.8004    0.0001 C.ar    1  LIG1       -0.0406
      4 C          -3.2580    0.3743   -0.0001 C.ar    1  LIG1        0.0777
      5 C          -4.6612    0.2715   -0.0003 C.ar    1  LIG1        0.0903
      6 N          -5.3207   -0.9034   -0.0001 N.ar    1  LIG1       -0.2505
      7 H          -1.4054   -0.7607   -0.0009 H       1  LIG1        0.0632
      8 H          -2.5135   -3.1487    0.0004 H       1  LIG1        0.0636
      9 C          -5.2433   -3.1440    0.0002 C.3     1  LIG1       -0.0223
     10 H          -4.6754   -3.8976    0.5047 H       1  LIG1        0.0292
     11 H          -5.4259   -3.4505   -1.0086 H       1  LIG1        0.0292
     12 H          -6.1763   -3.0029    0.5046 H       1  LIG1        0.0292
     13 N          -2.1789    2.5700   -0.0005 N.1     1  LIG1       -0.1908
     14 C          -2.6846    1.5410   -0.0003 C.1     1  LIG1        0.1013
     15 C          -6.8088    1.2233   -0.0003 C.ar    1  LIG1        0.0482
     16 C          -5.4065    1.3366   -0.0004 C.ar    1  LIG1        0.0239
     17 C          -4.8408    2.6129   -0.0003 C.ar    1  LIG1       -0.0313
     18 C          -5.6871    3.7231   -0.0003 C.ar    1  LIG1        0.0784
     19 C          -7.0774    3.5076   -0.0004 C.ar    1  LIG1        0.0903
     20 N          -7.6401    2.2834   -0.0003 N.ar    1  LIG1       -0.2499
     21 H          -3.7491    2.7410   -0.0014 H       1  LIG1        0.0638
     22 C          -7.3825    0.0563   -0.0003 C.3     1  LIG1       -0.0217
     23 H          -6.7558   -0.6491    0.5041 H       1  LIG1        0.0293
     24 H          -7.5398   -0.2638   -1.0091 H       1  LIG1        0.0293
     25 H          -8.3239    0.1217    0.5041 H       1  LIG1        0.0293
     26 N          -4.7883    5.9986   -0.0004 N.1     1  LIG1       -0.1908
     27 C          -5.2095    4.9322   -0.0004 C.1     1  LIG1        0.1013
     28 C          -9.2948    4.2833   -0.0001 C.ar    1  LIG1        0.0481
     29 C          -7.9061    4.5092   -0.0003 C.ar    1  LIG1        0.0233
     30 C          -7.4450    5.8270   -0.0001 C.ar    1  LIG1       -0.0401
     31 C          -8.3780    6.8653    0.0002 C.ar    1  LIG1        0.0215
     32 C          -9.7465    6.5385    0.0002 C.ar    1  LIG1        0.0817
     33 N         -10.2087    5.2730    0.0002 N.ar    1  LIG1       -0.2505
     34 H          -6.3672    6.0425   -0.0012 H       1  LIG1        0.0632
     35 C          -9.7725    3.0739   -0.0002 C.3     1  LIG1       -0.0217
     36 H          -9.0910    2.4212    0.5042 H       1  LIG1        0.0293
     37 H          -9.9035    2.7422   -1.0090 H       1  LIG1        0.0293
     38 H         -10.7161    3.0632    0.5042 H       1  LIG1        0.0293
     39 N          -7.6654    9.2059    0.0002 N.2     1  LIG1       -0.1570
     40 C          -7.9994    8.1090    0.0002 C.2     1  LIG1        0.0591
     41 C         -10.2792    8.8264    0.0008 C.ar    1  LIG1        0.0509
     42 C         -10.6531    7.4702    0.0005 C.ar    1  LIG1        0.0235
     43 C         -12.0128    7.1535    0.0008 C.ar    1  LIG1       -0.0320
     44 C         -12.9448    8.1927    0.0012 C.ar    1  LIG1        0.0705
     45 C         -12.4727    9.5181    0.0013 C.ar    1  LIG1        0.0453
     46 N         -11.1648    9.8416    0.0012 N.ar    1  LIG1       -0.2579
     47 H         -12.3431    6.1051   -0.0005 H       1  LIG1        0.0638
     48 H         -13.3014   10.5197    0.0018 H       1  LIG1        0.0843
     49 C          -9.0254    9.1713    0.0006 C.3     1  LIG1       -0.0043
     50 H          -8.9132   10.1083    0.5050 H       1  LIG1        0.0332
     51 H          -8.6817    9.2660   -1.0083 H       1  LIG1        0.0332
     52 H          -8.4498    8.4236    0.5049 H       1  LIG1        0.0855
     53 N         -15.3484    7.7360    0.0014 N.1     1  LIG1       -0.1908
     54 C         -14.2220    7.9501    0.0013 C.1     1  LIG1        0.1007
@<TRIPOS>BOND
     1    24    22    1
     2    37    35    1
     3    11     9    1
     4    51    49    1
     5    21    17    1
     6    34    30    1
     7     7     3    1
     8    47    43    1
     9    13    14    3
    10    26    27    3
    11    16     5    1
    12    16    15   ar
    13    16    17   ar
    14    19    20   ar
    15    19    29    1
    16    19    18   ar
    17    27    18    1
    18    14     4    1
    19     5     6   ar
    20     5     4   ar
    21    15    22    1
    22    15    20   ar
    23    17    18   ar
    24    22    25    1
    25    22    23    1
    26    29    28   ar
    27    29    30   ar
    28    35    28    1
    29    35    38    1
    30    35    36    1
    31     6     1   ar
    32     4     3   ar
    33    28    33   ar
    34    30    31   ar
    35     1     2   ar
    36     1     9    1
    37     2     3   ar
    38     2     8    1
    39    33    32   ar
    40    32    31   ar
    41    32    42    1
    42    31    40    1
    43    40    39    2
    44    40    52    1
    45     9    12    1
    46     9    10    1
    47    42    43   ar
    48    42    41   ar
    49    49    41    1
    50    49    50    1
    51    43    44   ar
    52    41    46   ar
    53    44    45   ar
    54    44    54    1
    55    46    45   ar
    56    45    48    1
    57    54    53    3
