@<TRIPOS>MOLECULE
mol_data/noopt/geoms/mol2/6id6id6id-6id.out
 54 57 0 0 0
SMALL
GASTEIGER

@<TRIPOS>ATOM
      1 C          -4.5775   -2.0270    0.0001 C.ar    1  LIG1        0.0390
      2 C          -3.1706   -2.0270    0.0001 C.ar    1  LIG1       -0.0394
      3 C          -2.5039   -0.8004    0.0001 C.ar    1  LIG1       -0.0406
      4 C          -3.2580    0.3743   -0.0001 C.ar    1  LIG1        0.0777
      5 C          -4.6612    0.2715   -0.0003 C.ar    1  LIG1        0.0903
      6 N          -5.3207   -0.9034   -0.0001 N.ar    1  LIG1       -0.2505
      7 H          -1.4054   -0.7607   -0.0009 H       1  LIG1        0.0632
      8 H          -2.5135   -3.1487    0.0004 H       1  LIG1        0.0636
      9 C          -5.2433   -3.1440    0.0002 C.3     1  LIG1       -0.0223
     10 H          -4.6754   -3.8976    0.5047 H       1  LIG1        0.0292
     11 H          -5.4259   -3.4505   -1.0086 H       1  LIG1        0.0292
     12 H          -6.1763   -3.0029    0.5046 H       1  LIG1        0.0292
     13 N          -2.1789    2.5700   -0.0005 N.1     1  LIG1       -0.1908
     14 C          -2.6846    1.5410   -0.0003 C.1     1  LIG1        0.1013
     15 C          -6.8088    1.2233   -0.0003 C.ar    1  LIG1        0.0481
     16 C          -5.4065    1.3366   -0.0004 C.ar    1  LIG1        0.0233
     17 C          -4.8408    2.6129   -0.0003 C.ar    1  LIG1       -0.0401
     18 C          -5.6871    3.7231   -0.0003 C.ar    1  LIG1        0.0215
     19 C          -7.0774    3.5076   -0.0004 C.ar    1  LIG1        0.0817
     20 N          -7.6401    2.2834   -0.0003 N.ar    1  LIG1       -0.2505
     21 H          -3.7491    2.7410   -0.0014 H       1  LIG1        0.0632
     22 C          -7.3825    0.0563   -0.0003 C.3     1  LIG1       -0.0217
     23 H          -6.7558   -0.6491    0.5041 H       1  LIG1        0.0293
     24 H          -7.5398   -0.2638   -1.0091 H       1  LIG1        0.0293
     25 H          -8.3239    0.1217    0.5041 H       1  LIG1        0.0293
     26 N          -4.7883    5.9986   -0.0004 N.2     1  LIG1       -0.1570
     27 C          -5.2095    4.9322   -0.0004 C.2     1  LIG1        0.0591
     28 C          -7.4241    5.8310   -0.0000 C.ar    1  LIG1        0.0515
     29 C          -7.9061    4.5092   -0.0003 C.ar    1  LIG1        0.0229
     30 C          -9.2869    4.3031   -0.0001 C.ar    1  LIG1       -0.0401
     31 C         -10.1321    5.4140    0.0002 C.ar    1  LIG1        0.0215
     32 C          -9.5548    6.6971    0.0002 C.ar    1  LIG1        0.0817
     33 N          -8.2251    6.9141    0.0002 N.ar    1  LIG1       -0.2502
     34 H          -9.7005    3.2847   -0.0012 H       1  LIG1        0.0632
     35 C          -6.1467    6.0738   -0.0001 C.3     1  LIG1       -0.0043
     36 H          -5.9593    6.9986    0.5043 H       1  LIG1        0.0332
     37 H          -5.7963    6.1404   -1.0090 H       1  LIG1        0.0332
     38 H          -5.6331    5.2820    0.5042 H       1  LIG1        0.0855
     39 N         -12.5647    5.1524    0.0002 N.2     1  LIG1       -0.1570
     40 C         -11.4247    5.2750    0.0002 C.2     1  LIG1        0.0591
     41 C         -11.7025    7.6489    0.0008 C.ar    1  LIG1        0.0509
     42 C         -10.3001    7.7622    0.0005 C.ar    1  LIG1        0.0235
     43 C          -9.7344    9.0385    0.0008 C.ar    1  LIG1       -0.0320
     44 C         -10.5807   10.1487    0.0012 C.ar    1  LIG1        0.0705
     45 C         -11.9710    9.9332    0.0013 C.ar    1  LIG1        0.0453
     46 N         -12.5338    8.7090    0.0012 N.ar    1  LIG1       -0.2579
     47 H          -8.6427    9.1666   -0.0004 H       1  LIG1        0.0638
     48 H         -12.7997   10.9348    0.0018 H       1  LIG1        0.0843
     49 C         -12.2761    6.4819    0.0006 C.3     1  LIG1       -0.0043
     50 H         -11.6494    5.7764    0.5050 H       1  LIG1        0.0855
     51 H         -12.4333    6.1619   -1.0083 H       1  LIG1        0.0332
     52 H         -13.2175    6.5472    0.5049 H       1  LIG1        0.0332
     53 N          -9.6819   12.4242    0.0015 N.1     1  LIG1       -0.1908
     54 C         -10.1031   11.3578    0.0014 C.1     1  LIG1        0.1007
@<TRIPOS>BOND
     1    24    22    1
     2    37    35    1
     3    11     9    1
     4    51    49    1
     5    21    17    1
     6    34    30    1
     7     7     3    1
     8    13    14    3
     9    47    43    1
    10    26    27    2
    11    16     5    1
    12    16    15   ar
    13    16    17   ar
    14    19    20   ar
    15    19    29    1
    16    19    18   ar
    17    27    18    1
    18    27    38    1
    19    14     4    1
    20     5     6   ar
    21     5     4   ar
    22    15    22    1
    23    15    20   ar
    24    17    18   ar
    25    22    25    1
    26    22    23    1
    27    29    30   ar
    28    29    28   ar
    29    35    28    1
    30    35    36    1
    31     6     1   ar
    32     4     3   ar
    33    30    31   ar
    34    28    33   ar
    35     1     2   ar
    36     1     9    1
    37     2     3   ar
    38     2     8    1
    39    31    40    1
    40    31    32   ar
    41    40    39    2
    42    40    50    1
    43    32    33   ar
    44    32    42    1
    45     9    12    1
    46     9    10    1
    47    42    41   ar
    48    42    43   ar
    49    49    41    1
    50    49    52    1
    51    41    46   ar
    52    43    44   ar
    53    46    45   ar
    54    44    45   ar
    55    44    54    1
    56    45    48    1
    57    54    53    3
