@<TRIPOS>MOLECULE
mol_data/noopt/geoms/mol2/6id6ii(210)12ih(230)12ea(140).out
 51 54 0 0 0
SMALL
GASTEIGER

@<TRIPOS>ATOM
      1 C          -4.5775   -2.0270    0.0001 C.ar    1  LIG1        0.0389
      2 C          -3.1706   -2.0270    0.0001 C.ar    1  LIG1       -0.0403
      3 C          -2.5039   -0.8004    0.0001 C.ar    1  LIG1       -0.0529
      4 C          -3.2580    0.3743   -0.0001 C.ar    1  LIG1        0.0043
      5 C          -4.6612    0.2715   -0.0003 C.ar    1  LIG1        0.0781
      6 N          -5.3207   -0.9034   -0.0001 N.ar    1  LIG1       -0.2515
      7 H          -1.4054   -0.7607   -0.0009 H       1  LIG1        0.0622
      8 H          -2.5135   -3.1487    0.0004 H       1  LIG1        0.0635
      9 C          -5.2433   -3.1440    0.0002 C.3     1  LIG1       -0.0223
     10 H          -4.6754   -3.8976    0.5047 H       1  LIG1        0.0292
     11 H          -5.4259   -3.4505   -1.0086 H       1  LIG1        0.0292
     12 H          -6.1763   -3.0029    0.5046 H       1  LIG1        0.0292
     13 N          -2.1789    2.5700   -0.0005 N.3     1  LIG1       -0.2406
     14 C          -2.6846    1.5410   -0.0003 C.3     1  LIG1        0.1113
     15 C          -4.9526    2.5222    0.6059 C.ar    1  LIG1        0.0516
     16 C          -5.4065    1.3366   -0.0004 C.ar    1  LIG1        0.0223
     17 C          -6.6683    1.3341   -0.5978 C.ar    1  LIG1       -0.0458
     18 C          -7.4275    2.5051   -0.5696 C.ar    1  LIG1       -0.0208
     19 C          -6.8872    3.6407    0.0613 C.ar    1  LIG1        0.1095
     20 N          -5.6717    3.6608    0.6424 N.ar    1  LIG1       -0.2476
     21 H          -7.0570    0.4262   -1.0804 H       1  LIG1        0.0628
     22 C          -3.7846    2.5740    1.1751 C.3     1  LIG1       -0.0043
     23 H          -3.7235    3.4512    1.7848 H       1  LIG1        0.0332
     24 H          -3.0231    2.6078    0.4242 H       1  LIG1        0.1417
     25 H          -3.6462    1.7056    1.7847 H       1  LIG1        0.0332
     26 C          -8.6085    2.5539   -1.1116 C.3     1  LIG1       -0.0376
     27 H          -9.1785    1.7030   -0.8018 H       1  LIG1        0.0278
     28 H          -8.5123    2.5498   -2.1773 H       1  LIG1        0.0278
     29 H          -9.1064    3.4488   -0.8018 H       1  LIG1        0.0278
     30 C          -7.5557    4.7544    0.1134 C.ar    1  LIG1        0.1589
     31 C          -8.6496    5.2765   -0.5453 C.ar    1  LIG1        0.0182
     32 C          -8.8775    6.5946    0.0092 C.ar    1  LIG1        0.0777
     33 C          -7.9074    6.7906    0.9705 C.ar    1  LIG1        0.1926
     34 O          -7.0804    5.6699    1.0534 O.2     1  LIG1       -0.4480
     35 C          -9.3554    4.7171   -1.4832 C.3     1  LIG1       -0.0343
     36 H          -9.2915    3.6529   -1.3911 H       1  LIG1        0.0279
     37 H          -8.9787    5.0155   -2.4393 H       1  LIG1        0.0279
     38 H         -10.3768    5.0224   -1.3911 H       1  LIG1        0.0279
     39 N          -9.8214    7.4140   -0.3481 N.pl3   1  LIG1       -0.3547
     40 H          -9.4303    8.1558   -0.8930 H       1  LIG1        0.1424
     41 H         -10.5008    6.9227   -0.8930 H       1  LIG1        0.1424
     42 C          -7.5970    7.7500    1.7910 C.ar    1  LIG1        0.1868
     43 C          -8.2151    8.3716    2.8561 C.ar    1  LIG1        0.0735
     44 C          -7.2966    9.3830    3.3361 C.ar    1  LIG1       -0.0077
     45 C          -6.1776    9.3122    2.5321 C.ar    1  LIG1        0.0939
     46 O          -6.3388    8.3128    1.5719 O.2     1  LIG1       -0.4585
     47 H          -5.0430    9.9434    2.4662 H       1  LIG1        0.1030
     48 C          -9.3900    8.1193    3.3520 C.1     1  LIG1       -0.0658
     49 C         -10.4757    7.8862    3.8102 C.1     1  LIG1       -0.1138
     50 H         -11.4427    7.6785    4.2183 H       1  LIG1        0.1232
     51 H          -7.5105   10.1884    4.3339 H       1  LIG1        0.0661
@<TRIPOS>BOND
     1    37    35    1
     2    28    26    1
     3    35    38    1
     4    35    36    1
     5    35    31    1
     6    26    29    1
     7    26    27    1
     8    26    18    1
     9    21    17    1
    10    11     9    1
    11    41    39    1
    12    40    39    1
    13    17    18   ar
    14    17    16   ar
    15    18    19   ar
    16    31    32   ar
    17    31    30   ar
    18    39    32    1
    19     7     3    1
    20    13    14    1
    21    13    24    1
    22    16     5    1
    23    16    15   ar
    24    14     4    1
    25     5     6   ar
    26     5     4   ar
    27     6     1   ar
    28     4     3   ar
    29     1     2   ar
    30     1     9    1
    31     2     3   ar
    32     2     8    1
    33     9    12    1
    34     9    10    1
    35    32    33   ar
    36    19    30    1
    37    19    20   ar
    38    30    34   ar
    39    15    20   ar
    40    15    22    1
    41    33    34   ar
    42    33    42    1
    43    22    25    1
    44    22    23    1
    45    46    42   ar
    46    46    45   ar
    47    42    43   ar
    48    47    45    1
    49    45    44   ar
    50    43    44   ar
    51    43    48    1
    52    44    51    1
    53    48    49    3
    54    49    50    1
