@<TRIPOS>MOLECULE
mol_data/noopt/geoms/mol2/6id6id.out
 28 29 0 0 0
SMALL
GASTEIGER

@<TRIPOS>ATOM
      1 C          -4.5775   -2.0270    0.0001 C.ar    1  LIG1        0.0390
      2 C          -3.1706   -2.0270    0.0001 C.ar    1  LIG1       -0.0394
      3 C          -2.5039   -0.8004    0.0001 C.ar    1  LIG1       -0.0406
      4 C          -3.2580    0.3743   -0.0001 C.ar    1  LIG1        0.0777
      5 C          -4.6612    0.2715   -0.0003 C.ar    1  LIG1        0.0903
      6 N          -5.3207   -0.9034   -0.0001 N.ar    1  LIG1       -0.2505
      7 H          -1.4054   -0.7607   -0.0009 H       1  LIG1        0.0632
      8 H          -2.5135   -3.1487    0.0004 H       1  LIG1        0.0636
      9 C          -5.2433   -3.1440    0.0002 C.3     1  LIG1       -0.0223
     10 H          -4.6754   -3.8976    0.5047 H       1  LIG1        0.0292
     11 H          -5.4259   -3.4505   -1.0086 H       1  LIG1        0.0292
     12 H          -6.1763   -3.0029    0.5046 H       1  LIG1        0.0292
     13 N          -2.1789    2.5700   -0.0005 N.1     1  LIG1       -0.1908
     14 C          -2.6846    1.5410   -0.0003 C.1     1  LIG1        0.1013
     15 C          -6.8088    1.2233   -0.0003 C.ar    1  LIG1        0.0475
     16 C          -5.4065    1.3366   -0.0004 C.ar    1  LIG1        0.0238
     17 C          -4.8408    2.6129   -0.0003 C.ar    1  LIG1       -0.0319
     18 C          -5.6871    3.7231   -0.0003 C.ar    1  LIG1        0.0705
     19 C          -7.0774    3.5076   -0.0004 C.ar    1  LIG1        0.0452
     20 N          -7.6401    2.2834   -0.0003 N.ar    1  LIG1       -0.2582
     21 H          -3.7491    2.7410   -0.0014 H       1  LIG1        0.0638
     22 H          -7.9061    4.5092   -0.0003 H       1  LIG1        0.0843
     23 C          -7.3825    0.0563   -0.0003 C.3     1  LIG1       -0.0217
     24 H          -6.7558   -0.6491    0.5041 H       1  LIG1        0.0293
     25 H          -7.5398   -0.2638   -1.0091 H       1  LIG1        0.0293
     26 H          -8.3239    0.1217    0.5041 H       1  LIG1        0.0293
     27 N          -4.7883    5.9986   -0.0004 N.1     1  LIG1       -0.1908
     28 C          -5.2095    4.9322   -0.0004 C.1     1  LIG1        0.1007
@<TRIPOS>BOND
     1    25    23    1
     2    11     9    1
     3    21    17    1
     4     7     3    1
     5    13    14    3
     6    27    28    3
     7    16     5    1
     8    16    15   ar
     9    16    17   ar
    10    19    20   ar
    11    19    22    1
    12    19    18   ar
    13    28    18    1
    14     5     6   ar
    15     5     4   ar
    16    14     4    1
    17    15    23    1
    18    15    20   ar
    19    17    18   ar
    20    23    26    1
    21    23    24    1
    22     6     1   ar
    23     4     3   ar
    24     1     2   ar
    25     1     9    1
    26     3     2   ar
    27     2     8    1
    28     9    12    1
    29     9    10    1
