@<TRIPOS>MOLECULE
mol_data/noopt/geoms/mol2/6id6id6id.out
 41 43 0 0 0
SMALL
GASTEIGER

@<TRIPOS>ATOM
      1 C          -4.5775   -2.0270    0.0001 C.ar    1  LIG1        0.0390
      2 C          -3.1706   -2.0270    0.0001 C.ar    1  LIG1       -0.0394
      3 C          -2.5039   -0.8004    0.0001 C.ar    1  LIG1       -0.0406
      4 C          -3.2580    0.3743   -0.0001 C.ar    1  LIG1        0.0777
      5 C          -4.6612    0.2715   -0.0003 C.ar    1  LIG1        0.0903
      6 N          -5.3207   -0.9034   -0.0001 N.ar    1  LIG1       -0.2505
      7 H          -1.4054   -0.7607   -0.0009 H       1  LIG1        0.0632
      8 H          -2.5135   -3.1487    0.0004 H       1  LIG1        0.0636
      9 C          -5.2433   -3.1440    0.0002 C.3     1  LIG1       -0.0223
     10 H          -4.6754   -3.8976    0.5047 H       1  LIG1        0.0292
     11 H          -5.4259   -3.4505   -1.0086 H       1  LIG1        0.0292
     12 H          -6.1763   -3.0029    0.5046 H       1  LIG1        0.0292
     13 N          -2.1789    2.5700   -0.0005 N.1     1  LIG1       -0.1908
     14 C          -2.6846    1.5410   -0.0003 C.1     1  LIG1        0.1013
     15 C          -6.8088    1.2233   -0.0003 C.ar    1  LIG1        0.0482
     16 C          -5.4065    1.3366   -0.0004 C.ar    1  LIG1        0.0239
     17 C          -4.8408    2.6129   -0.0003 C.ar    1  LIG1       -0.0313
     18 C          -5.6871    3.7231   -0.0003 C.ar    1  LIG1        0.0784
     19 C          -7.0774    3.5076   -0.0004 C.ar    1  LIG1        0.0904
     20 N          -7.6401    2.2834   -0.0003 N.ar    1  LIG1       -0.2499
     21 H          -3.7491    2.7410   -0.0014 H       1  LIG1        0.0638
     22 C          -7.3825    0.0563   -0.0003 C.3     1  LIG1       -0.0217
     23 H          -6.7558   -0.6491    0.5041 H       1  LIG1        0.0293
     24 H          -7.5398   -0.2638   -1.0091 H       1  LIG1        0.0293
     25 H          -8.3239    0.1217    0.5041 H       1  LIG1        0.0293
     26 N          -4.7883    5.9986   -0.0004 N.1     1  LIG1       -0.1908
     27 C          -5.2095    4.9322   -0.0004 C.1     1  LIG1        0.1013
     28 C          -9.2948    4.2833   -0.0001 C.ar    1  LIG1        0.0475
     29 C          -7.9061    4.5092   -0.0003 C.ar    1  LIG1        0.0238
     30 C          -7.4450    5.8270   -0.0001 C.ar    1  LIG1       -0.0319
     31 C          -8.3780    6.8653    0.0002 C.ar    1  LIG1        0.0705
     32 C          -9.7465    6.5385    0.0002 C.ar    1  LIG1        0.0452
     33 N         -10.2087    5.2730    0.0002 N.ar    1  LIG1       -0.2582
     34 H          -6.3672    6.0425   -0.0012 H       1  LIG1        0.0638
     35 H         -10.6531    7.4701    0.0005 H       1  LIG1        0.0843
     36 C          -9.7725    3.0739   -0.0002 C.3     1  LIG1       -0.0217
     37 H          -9.0910    2.4212    0.5042 H       1  LIG1        0.0293
     38 H          -9.9035    2.7422   -1.0090 H       1  LIG1        0.0293
     39 H         -10.7161    3.0632    0.5042 H       1  LIG1        0.0293
     40 N          -7.6654    9.2059    0.0002 N.1     1  LIG1       -0.1908
     41 C          -7.9994    8.1090    0.0002 C.1     1  LIG1        0.1007
@<TRIPOS>BOND
     1    24    22    1
     2    38    36    1
     3    11     9    1
     4    21    17    1
     5    34    30    1
     6     7     3    1
     7    13    14    3
     8    26    27    3
     9    16     5    1
    10    16    15   ar
    11    16    17   ar
    12    19    20   ar
    13    19    29    1
    14    19    18   ar
    15    27    18    1
    16     5     6   ar
    17     5     4   ar
    18    14     4    1
    19    15    22    1
    20    15    20   ar
    21    17    18   ar
    22    22    25    1
    23    22    23    1
    24    29    28   ar
    25    29    30   ar
    26    36    28    1
    27    36    39    1
    28    36    37    1
    29     6     1   ar
    30     4     3   ar
    31    28    33   ar
    32    30    31   ar
    33     1     2   ar
    34     1     9    1
    35     3     2   ar
    36     2     8    1
    37    33    32   ar
    38    32    31   ar
    39    32    35    1
    40    31    41    1
    41    41    40    3
    42     9    12    1
    43     9    10    1
