@<TRIPOS>MOLECULE
mol_data/noopt/geoms/mol2/6id6id-4id6id.out
 55 58 0 0 0
SMALL
GASTEIGER

@<TRIPOS>ATOM
      1 C          -4.5775   -2.0270    0.0001 C.ar    1  LIG1        0.0390
      2 C          -3.1706   -2.0270    0.0001 C.ar    1  LIG1       -0.0400
      3 C          -2.5039   -0.8004    0.0001 C.ar    1  LIG1       -0.0494
      4 C          -3.2580    0.3743   -0.0001 C.ar    1  LIG1        0.0208
      5 C          -4.6612    0.2715   -0.0003 C.ar    1  LIG1        0.0816
      6 N          -5.3207   -0.9034   -0.0001 N.ar    1  LIG1       -0.2512
      7 H          -1.4054   -0.7607   -0.0009 H       1  LIG1        0.0625
      8 H          -2.5135   -3.1487    0.0004 H       1  LIG1        0.0636
      9 C          -5.2433   -3.1440    0.0002 C.3     1  LIG1       -0.0223
     10 H          -4.6754   -3.8976    0.5047 H       1  LIG1        0.0292
     11 H          -5.4259   -3.4505   -1.0086 H       1  LIG1        0.0292
     12 H          -6.1763   -3.0029    0.5046 H       1  LIG1        0.0292
     13 N          -2.1789    2.5700   -0.0005 N.2     1  LIG1       -0.1570
     14 C          -2.6846    1.5410   -0.0003 C.2     1  LIG1        0.0591
     15 C          -4.8196    2.6153   -0.0003 C.ar    1  LIG1        0.0516
     16 C          -5.4065    1.3366   -0.0004 C.ar    1  LIG1        0.0235
     17 C          -6.7994    1.2424   -0.0003 C.ar    1  LIG1       -0.0313
     18 C          -7.5524    2.4178   -0.0003 C.ar    1  LIG1        0.0783
     19 C          -6.8736    3.6502   -0.0004 C.ar    1  LIG1        0.0889
     20 N          -5.5307    3.7594   -0.0003 N.ar    1  LIG1       -0.2496
     21 H          -7.2937    0.2606   -0.0014 H       1  LIG1        0.0638
     22 C          -3.5268    2.7544   -0.0003 C.3     1  LIG1       -0.0043
     23 H          -3.2656    3.6611    0.5042 H       1  LIG1        0.0332
     24 H          -3.1721    2.7926   -1.0091 H       1  LIG1        0.0332
     25 H          -3.0787    1.9238    0.5041 H       1  LIG1        0.0855
     26 N          -9.9982    2.3530   -0.0005 N.1     1  LIG1       -0.1908
     27 C          -8.8520    2.3834   -0.0004 C.1     1  LIG1        0.1013
     28 C          -6.8310    5.9958    0.0005 C.ar    1  LIG1       -0.0406
     29 C          -7.5886    7.1830    0.0022 C.ar    1  LIG1       -0.0498
     30 C          -7.5307    4.7718   -0.0003 C.ar    1  LIG1        0.0052
     31 C          -8.9814    7.1551    0.0023 C.ar    1  LIG1       -0.0072
     32 H          -7.0688    8.1385    0.0030 H       1  LIG1        0.0627
     33 C          -8.9211    4.7434   -0.0001 C.ar    1  LIG1       -0.0430
     34 C          -9.6560    5.9336    0.0011 C.ar    1  LIG1        0.0032
     35 H          -9.4376    3.7869   -0.0006 H       1  LIG1        0.0631
     36 C          -5.5338    6.0859    0.0002 C.3     1  LIG1       -0.0391
     37 H          -5.2384    6.9822    0.5045 H       1  LIG1        0.0278
     38 H          -5.1783    6.1107   -1.0088 H       1  LIG1        0.0278
     39 H          -5.1174    5.2390    0.5044 H       1  LIG1        0.0278
     40 N         -12.1018    5.8718    0.0017 N.2     1  LIG1       -0.1571
     41 C         -10.9556    5.9008    0.0014 C.2     1  LIG1        0.0576
     42 C         -11.0562    8.2567    0.0047 C.ar    1  LIG1        0.0494
     43 C          -9.6493    8.2703    0.0037 C.ar    1  LIG1        0.0053
     44 C          -8.9946    9.5034    0.0047 C.ar    1  LIG1       -0.0334
     45 C          -9.7600   10.6707    0.0063 C.ar    1  LIG1        0.0704
     46 C         -11.1621   10.5543    0.0069 C.ar    1  LIG1        0.0453
     47 N         -11.8102    9.3730    0.0062 N.ar    1  LIG1       -0.2580
     48 H          -7.8965    9.5537    0.0030 H       1  LIG1        0.0637
     49 H         -11.9177   11.6121    0.0085 H       1  LIG1        0.0843
     50 C         -11.7110    7.1333    0.0040 C.3     1  LIG1       -0.0044
     51 H         -11.1361    6.3850    0.5082 H       1  LIG1        0.0854
     52 H         -11.8903    6.8256   -1.0051 H       1  LIG1        0.0332
     53 H         -12.6456    7.2650    0.5081 H       1  LIG1        0.0332
     54 N          -8.7022   12.8768    0.0077 N.1     1  LIG1       -0.1908
     55 C          -9.1980   11.8429    0.0071 C.1     1  LIG1        0.1007
@<TRIPOS>BOND
     1    24    22    1
     2    38    36    1
     3    11     9    1
     4    52    50    1
     5    21    17    1
     6     7     3    1
     7    35    33    1
     8    26    27    3
     9    13    14    2
    10    16    17   ar
    11    16     5    1
    12    16    15   ar
    13    27    18    1
    14    19    18   ar
    15    19    30    1
    16    19    20   ar
    17    17    18   ar
    18    14     4    1
    19    14    25    1
    20     5     6   ar
    21     5     4   ar
    22    30    33   ar
    23    30    28   ar
    24    15    20   ar
    25    15    22    1
    26    22    23    1
    27     6     1   ar
    28     4     3   ar
    29    33    34   ar
    30     3     2   ar
    31     2     1   ar
    32     2     8    1
    33     1     9    1
    34    36    28    1
    35    36    39    1
    36    36    37    1
    37     9    12    1
    38     9    10    1
    39    28    29   ar
    40    34    41    1
    41    34    31   ar
    42    41    40    2
    43    41    51    1
    44    29    31   ar
    45    29    32    1
    46    31    43    1
    47    48    44    1
    48    43    42   ar
    49    43    44   ar
    50    50    42    1
    51    50    53    1
    52    42    47   ar
    53    44    45   ar
    54    47    46   ar
    55    45    46   ar
    56    45    55    1
    57    46    49    1
    58    55    54    3
