@<TRIPOS>MOLECULE
mol_data/noopt/geoms/mol2/6ie6ie6ie-6ie.out
 58 61 0 0 0
SMALL
GASTEIGER

@<TRIPOS>ATOM
      1 C          -4.5775   -2.0270    0.0001 C.ar    1  LIG1        0.0390
      2 C          -3.1706   -2.0270    0.0001 C.ar    1  LIG1       -0.0395
      3 C          -2.5039   -0.8004    0.0001 C.ar    1  LIG1       -0.0426
      4 C          -3.2580    0.3743   -0.0001 C.ar    1  LIG1        0.0507
      5 C          -4.6612    0.2715   -0.0003 C.ar    1  LIG1        0.0883
      6 N          -5.3207   -0.9034   -0.0001 N.ar    1  LIG1       -0.2506
      7 H          -1.4054   -0.7607   -0.0009 H       1  LIG1        0.0631
      8 H          -2.5135   -3.1487    0.0004 H       1  LIG1        0.0636
      9 C          -5.2433   -3.1440    0.0002 C.3     1  LIG1       -0.0223
     10 H          -4.6754   -3.8976    0.5047 H       1  LIG1        0.0292
     11 H          -5.4259   -3.4505   -1.0086 H       1  LIG1        0.0292
     12 H          -6.1763   -3.0029    0.5046 H       1  LIG1        0.0292
     13 C          -2.6846    1.5410   -0.0003 C.1     1  LIG1       -0.0675
     14 C          -2.1548    2.6190   -0.0005 C.1     1  LIG1       -0.1138
     15 H          -1.6828    3.5793   -0.0006 H       1  LIG1        0.1232
     16 C          -6.8088    1.2233   -0.0003 C.ar    1  LIG1        0.0481
     17 C          -5.4065    1.3366   -0.0004 C.ar    1  LIG1        0.0229
     18 C          -4.8408    2.6129   -0.0003 C.ar    1  LIG1       -0.0453
     19 C          -5.6871    3.7231   -0.0003 C.ar    1  LIG1       -0.0168
     20 C          -7.0774    3.5076   -0.0004 C.ar    1  LIG1        0.0765
     21 N          -7.6401    2.2834   -0.0003 N.ar    1  LIG1       -0.2509
     22 H          -3.7491    2.7410   -0.0014 H       1  LIG1        0.0628
     23 C          -7.3825    0.0563   -0.0003 C.3     1  LIG1       -0.0217
     24 H          -6.7558   -0.6491    0.5041 H       1  LIG1        0.0293
     25 H          -7.5398   -0.2638   -1.0091 H       1  LIG1        0.0293
     26 H          -8.3239    0.1217    0.5041 H       1  LIG1        0.0293
     27 C          -5.2095    4.9322   -0.0004 C.3     1  LIG1       -0.0033
     28 C          -4.7682    6.0494   -0.0004 C.3     1  LIG1       -0.0262
     29 H          -4.3752    7.0446   -0.0005 H       1  LIG1        0.0313
     30 C          -7.4241    5.8310   -0.0000 C.ar    1  LIG1        0.0515
     31 C          -7.9061    4.5092   -0.0003 C.ar    1  LIG1        0.0222
     32 C          -9.2869    4.3031   -0.0001 C.ar    1  LIG1       -0.0453
     33 C         -10.1321    5.4140    0.0002 C.ar    1  LIG1       -0.0168
     34 C          -9.5548    6.6971    0.0002 C.ar    1  LIG1        0.0765
     35 N          -8.2251    6.9141    0.0002 N.ar    1  LIG1       -0.2506
     36 H          -9.7005    3.2847   -0.0012 H       1  LIG1        0.0628
     37 C          -6.1467    6.0738   -0.0001 C.3     1  LIG1       -0.0043
     38 H          -5.9593    6.9986    0.5043 H       1  LIG1        0.0332
     39 H          -5.7963    6.1404   -1.0090 H       1  LIG1        0.0332
     40 H          -5.6331    5.2820    0.5042 H       1  LIG1        0.0358
     41 C         -11.4247    5.2750    0.0002 C.3     1  LIG1       -0.0033
     42 C         -12.6190    5.1466    0.0002 C.3     1  LIG1       -0.0262
     43 H         -13.6829    5.0322    0.0002 H       1  LIG1        0.0313
     44 C         -11.7025    7.6489    0.0008 C.ar    1  LIG1        0.0509
     45 C         -10.3001    7.7622    0.0005 C.ar    1  LIG1        0.0231
     46 C          -9.7344    9.0385    0.0008 C.ar    1  LIG1       -0.0340
     47 C         -10.5807   10.1487    0.0012 C.ar    1  LIG1        0.0434
     48 C         -11.9710    9.9332    0.0013 C.ar    1  LIG1        0.0433
     49 N         -12.5338    8.7090    0.0012 N.ar    1  LIG1       -0.2580
     50 H          -8.6427    9.1666   -0.0004 H       1  LIG1        0.0637
     51 H         -12.7997   10.9348    0.0018 H       1  LIG1        0.0842
     52 C         -12.2761    6.4819    0.0006 C.3     1  LIG1       -0.0043
     53 H         -11.6494    5.7764    0.5050 H       1  LIG1        0.0358
     54 H         -12.4333    6.1619   -1.0083 H       1  LIG1        0.0332
     55 H         -13.2175    6.5472    0.5049 H       1  LIG1        0.0332
     56 C         -10.1031   11.3578    0.0014 C.1     1  LIG1       -0.0681
     57 C          -9.6619   12.4750    0.0015 C.1     1  LIG1       -0.1139
     58 H          -9.2688   13.4702    0.0016 H       1  LIG1        0.1232
@<TRIPOS>BOND
     1    25    23    1
     2    39    37    1
     3    11     9    1
     4    54    52    1
     5    22    18    1
     6    36    32    1
     7     7     3    1
     8    15    14    1
     9    29    28    1
    10    14    13    3
    11    28    27    1
    12    50    46    1
    13    17     5    1
    14    17    16   ar
    15    17    18   ar
    16    20    21   ar
    17    20    31    1
    18    20    19   ar
    19    27    19    1
    20    27    40    1
    21    13     4    1
    22     5     4   ar
    23     5     6   ar
    24    16    23    1
    25    16    21   ar
    26    18    19   ar
    27    23    26    1
    28    23    24    1
    29    31    32   ar
    30    31    30   ar
    31    37    30    1
    32    37    38    1
    33     4     3   ar
    34     6     1   ar
    35    32    33   ar
    36    30    35   ar
    37     1     2   ar
    38     1     9    1
    39     2     3   ar
    40     2     8    1
    41    33    41    1
    42    33    34   ar
    43    41    42    1
    44    41    53    1
    45    34    35   ar
    46    34    45    1
    47    42    43    1
    48     9    12    1
    49     9    10    1
    50    45    44   ar
    51    45    46   ar
    52    52    44    1
    53    52    55    1
    54    44    49   ar
    55    46    47   ar
    56    49    48   ar
    57    47    48   ar
    58    47    56    1
    59    48    51    1
    60    56    57    3
    61    57    58    1
