@<TRIPOS>MOLECULE
mol_data/noopt/geoms/mol2/6ie6ie-6ie6ie-.out
 58 61 0 0 0
SMALL
GASTEIGER

@<TRIPOS>ATOM
      1 C          -4.5775   -2.0270    0.0001 C.ar    1  LIG1        0.0389
      2 C          -3.1706   -2.0270    0.0001 C.ar    1  LIG1       -0.0404
      3 C          -2.5039   -0.8004    0.0001 C.ar    1  LIG1       -0.0546
      4 C          -3.2580    0.3743   -0.0001 C.ar    1  LIG1       -0.0174
      5 C          -4.6612    0.2715   -0.0003 C.ar    1  LIG1        0.0764
      6 N          -5.3207   -0.9034   -0.0001 N.ar    1  LIG1       -0.2515
      7 H          -1.4054   -0.7607   -0.0009 H       1  LIG1        0.0622
      8 H          -2.5135   -3.1487    0.0004 H       1  LIG1        0.0635
      9 C          -5.2433   -3.1440    0.0002 C.3     1  LIG1       -0.0223
     10 H          -4.6754   -3.8976    0.5047 H       1  LIG1        0.0292
     11 H          -5.4259   -3.4505   -1.0086 H       1  LIG1        0.0292
     12 H          -6.1763   -3.0029    0.5046 H       1  LIG1        0.0292
     13 C          -2.6846    1.5410   -0.0003 C.3     1  LIG1       -0.0033
     14 C          -2.1548    2.6190   -0.0005 C.3     1  LIG1       -0.0262
     15 H          -1.6828    3.5793   -0.0006 H       1  LIG1        0.0313
     16 C          -4.8196    2.6153   -0.0003 C.ar    1  LIG1        0.0515
     17 C          -5.4065    1.3366   -0.0004 C.ar    1  LIG1        0.0222
     18 C          -6.7994    1.2424   -0.0003 C.ar    1  LIG1       -0.0453
     19 C          -7.5524    2.4178   -0.0003 C.ar    1  LIG1       -0.0168
     20 C          -6.8736    3.6502   -0.0004 C.ar    1  LIG1        0.0765
     21 N          -5.5307    3.7594   -0.0003 N.ar    1  LIG1       -0.2506
     22 H          -7.2937    0.2606   -0.0014 H       1  LIG1        0.0628
     23 C          -3.5268    2.7544   -0.0003 C.3     1  LIG1       -0.0043
     24 H          -3.2656    3.6611    0.5042 H       1  LIG1        0.0332
     25 H          -3.1721    2.7926   -1.0091 H       1  LIG1        0.0332
     26 H          -3.0787    1.9238    0.5041 H       1  LIG1        0.0358
     27 C          -8.8520    2.3834   -0.0004 C.3     1  LIG1       -0.0033
     28 C         -10.0528    2.3516   -0.0005 C.3     1  LIG1       -0.0262
     29 H         -11.1224    2.3232   -0.0006 H       1  LIG1        0.0313
     30 C          -8.9376    4.7719   -0.0001 C.ar    1  LIG1        0.0515
     31 C          -7.5307    4.7719   -0.0003 C.ar    1  LIG1        0.0222
     32 C          -6.8640    5.9985   -0.0001 C.ar    1  LIG1       -0.0453
     33 C          -7.6181    7.1732    0.0002 C.ar    1  LIG1       -0.0168
     34 C          -9.0213    7.0704    0.0002 C.ar    1  LIG1        0.0765
     35 N          -9.6808    5.8955    0.0002 N.ar    1  LIG1       -0.2506
     36 H          -5.7655    6.0382   -0.0012 H       1  LIG1        0.0628
     37 C          -9.6034    3.6549   -0.0002 C.3     1  LIG1       -0.0043
     38 H          -9.0356    2.9012    0.5043 H       1  LIG1        0.0358
     39 H          -9.7859    3.3486   -1.0090 H       1  LIG1        0.0332
     40 H         -10.5365    3.7959    0.5042 H       1  LIG1        0.0332
     41 C          -7.0447    8.3399    0.0002 C.3     1  LIG1       -0.0033
     42 C          -6.5149    9.4179    0.0002 C.3     1  LIG1       -0.0262
     43 H          -6.0430   10.3782    0.0002 H       1  LIG1        0.0313
     44 C          -9.1798    9.4141    0.0008 C.ar    1  LIG1        0.0509
     45 C          -9.7667    8.1355    0.0005 C.ar    1  LIG1        0.0231
     46 C         -11.1596    8.0413    0.0008 C.ar    1  LIG1       -0.0340
     47 C         -11.9126    9.2167    0.0012 C.ar    1  LIG1        0.0434
     48 C         -11.2338   10.4491    0.0013 C.ar    1  LIG1        0.0433
     49 N          -9.8909   10.5583    0.0012 N.ar    1  LIG1       -0.2580
     50 H         -11.6539    7.0595   -0.0005 H       1  LIG1        0.0637
     51 H         -11.8909   11.5707    0.0018 H       1  LIG1        0.0842
     52 C          -7.8869    9.5532    0.0006 C.3     1  LIG1       -0.0043
     53 H          -7.6257   10.4600    0.5050 H       1  LIG1        0.0332
     54 H          -7.5324    9.5915   -1.0083 H       1  LIG1        0.0332
     55 H          -7.4388    8.7227    0.5049 H       1  LIG1        0.0358
     56 C         -13.2121    9.1823    0.0013 C.1     1  LIG1       -0.0681
     57 C         -14.4129    9.1504    0.0015 C.1     1  LIG1       -0.1139
     58 H         -15.4825    9.1221    0.0015 H       1  LIG1        0.1232
@<TRIPOS>BOND
     1    25    23    1
     2    39    37    1
     3    11     9    1
     4    54    52    1
     5    22    18    1
     6    36    32    1
     7     7     3    1
     8    15    14    1
     9    29    28    1
    10    28    27    1
    11    14    13    1
    12    50    46    1
    13    17    18   ar
    14    17     5    1
    15    17    16   ar
    16    27    19    1
    17    27    38    1
    18    20    19   ar
    19    20    31    1
    20    20    21   ar
    21    18    19   ar
    22    13     4    1
    23    13    26    1
    24     5     4   ar
    25     5     6   ar
    26    31    30   ar
    27    31    32   ar
    28    16    21   ar
    29    16    23    1
    30    23    24    1
    31    37    30    1
    32    37    40    1
    33     4     3   ar
    34     6     1   ar
    35    30    35   ar
    36    32    33   ar
    37     1     2   ar
    38     1     9    1
    39     2     3   ar
    40     2     8    1
    41    35    34   ar
    42    34    33   ar
    43    34    45    1
    44    33    41    1
    45    41    42    1
    46    41    55    1
    47     9    12    1
    48     9    10    1
    49    42    43    1
    50    45    46   ar
    51    45    44   ar
    52    52    44    1
    53    52    53    1
    54    46    47   ar
    55    44    49   ar
    56    47    48   ar
    57    47    56    1
    58    49    48   ar
    59    48    51    1
    60    56    57    3
    61    57    58    1
