@<TRIPOS>MOLECULE
mol_data/noopt/geoms/mol2/6ie6ie-4ie6ie.out
 59 62 0 0 0
SMALL
GASTEIGER

@<TRIPOS>ATOM
      1 C          -4.5775   -2.0270    0.0001 C.ar    1  LIG1        0.0389
      2 C          -3.1706   -2.0270    0.0001 C.ar    1  LIG1       -0.0404
      3 C          -2.5039   -0.8004    0.0001 C.ar    1  LIG1       -0.0546
      4 C          -3.2580    0.3743   -0.0001 C.ar    1  LIG1       -0.0174
      5 C          -4.6612    0.2715   -0.0003 C.ar    1  LIG1        0.0765
      6 N          -5.3207   -0.9034   -0.0001 N.ar    1  LIG1       -0.2515
      7 H          -1.4054   -0.7607   -0.0009 H       1  LIG1        0.0622
      8 H          -2.5135   -3.1487    0.0004 H       1  LIG1        0.0635
      9 C          -5.2433   -3.1440    0.0002 C.3     1  LIG1       -0.0223
     10 H          -4.6754   -3.8976    0.5047 H       1  LIG1        0.0292
     11 H          -5.4259   -3.4505   -1.0086 H       1  LIG1        0.0292
     12 H          -6.1763   -3.0029    0.5046 H       1  LIG1        0.0292
     13 C          -2.6846    1.5410   -0.0003 C.3     1  LIG1       -0.0033
     14 C          -2.1548    2.6190   -0.0005 C.3     1  LIG1       -0.0262
     15 H          -1.6828    3.5793   -0.0006 H       1  LIG1        0.0313
     16 C          -4.8196    2.6153   -0.0003 C.ar    1  LIG1        0.0516
     17 C          -5.4065    1.3366   -0.0004 C.ar    1  LIG1        0.0231
     18 C          -6.7994    1.2424   -0.0003 C.ar    1  LIG1       -0.0333
     19 C          -7.5524    2.4178   -0.0003 C.ar    1  LIG1        0.0513
     20 C          -6.8736    3.6502   -0.0004 C.ar    1  LIG1        0.0869
     21 N          -5.5307    3.7594   -0.0003 N.ar    1  LIG1       -0.2497
     22 H          -7.2937    0.2606   -0.0014 H       1  LIG1        0.0637
     23 C          -3.5268    2.7544   -0.0003 C.3     1  LIG1       -0.0043
     24 H          -3.2656    3.6611    0.5042 H       1  LIG1        0.0332
     25 H          -3.1721    2.7926   -1.0091 H       1  LIG1        0.0332
     26 H          -3.0787    1.9238    0.5041 H       1  LIG1        0.0358
     27 C          -8.8520    2.3834   -0.0004 C.1     1  LIG1       -0.0675
     28 C         -10.0528    2.3516   -0.0005 C.1     1  LIG1       -0.1138
     29 H         -11.1224    2.3232   -0.0006 H       1  LIG1        0.1232
     30 C          -6.8310    5.9958    0.0005 C.ar    1  LIG1       -0.0407
     31 C          -7.5886    7.1830    0.0022 C.ar    1  LIG1       -0.0502
     32 C          -7.5307    4.7718   -0.0003 C.ar    1  LIG1        0.0048
     33 C          -8.9814    7.1551    0.0023 C.ar    1  LIG1       -0.0124
     34 H          -7.0688    8.1385    0.0030 H       1  LIG1        0.0627
     35 C          -8.9211    4.7434   -0.0001 C.ar    1  LIG1       -0.0482
     36 C          -9.6560    5.9336    0.0011 C.ar    1  LIG1       -0.0350
     37 H          -9.4376    3.7869   -0.0006 H       1  LIG1        0.0627
     38 C          -5.5338    6.0859    0.0002 C.3     1  LIG1       -0.0391
     39 H          -5.2384    6.9822    0.5045 H       1  LIG1        0.0278
     40 H          -5.1783    6.1107   -1.0088 H       1  LIG1        0.0278
     41 H          -5.1174    5.2390    0.5044 H       1  LIG1        0.0278
     42 C         -10.9556    5.9008    0.0014 C.3     1  LIG1       -0.0048
     43 C         -12.1564    5.8705    0.0017 C.3     1  LIG1       -0.0263
     44 H         -13.2261    5.8435    0.0020 H       1  LIG1        0.0313
     45 C         -11.0562    8.2567    0.0047 C.ar    1  LIG1        0.0494
     46 C          -9.6493    8.2703    0.0037 C.ar    1  LIG1        0.0049
     47 C          -8.9946    9.5034    0.0047 C.ar    1  LIG1       -0.0354
     48 C          -9.7600   10.6707    0.0063 C.ar    1  LIG1        0.0433
     49 C         -11.1621   10.5543    0.0069 C.ar    1  LIG1        0.0433
     50 N         -11.8102    9.3730    0.0062 N.ar    1  LIG1       -0.2581
     51 H          -7.8965    9.5537    0.0030 H       1  LIG1        0.0637
     52 H         -11.9177   11.6121    0.0085 H       1  LIG1        0.0842
     53 C         -11.7110    7.1333    0.0040 C.3     1  LIG1       -0.0044
     54 H         -11.1361    6.3850    0.5082 H       1  LIG1        0.0358
     55 H         -11.8903    6.8256   -1.0051 H       1  LIG1        0.0332
     56 H         -12.6456    7.2650    0.5081 H       1  LIG1        0.0332
     57 C          -9.1980   11.8429    0.0071 C.1     1  LIG1       -0.0681
     58 C          -8.6786   12.9260    0.0077 C.1     1  LIG1       -0.1139
     59 H          -8.2160   13.8909    0.0083 H       1  LIG1        0.1232
@<TRIPOS>BOND
     1    25    23    1
     2    40    38    1
     3    11     9    1
     4    55    53    1
     5    22    18    1
     6     7     3    1
     7    15    14    1
     8    37    35    1
     9    29    28    1
    10    28    27    3
    11    14    13    1
    12    17    18   ar
    13    17     5    1
    14    17    16   ar
    15    27    19    1
    16    20    19   ar
    17    20    32    1
    18    20    21   ar
    19    18    19   ar
    20    13     4    1
    21    13    26    1
    22     5     6   ar
    23     5     4   ar
    24    32    35   ar
    25    32    30   ar
    26    16    21   ar
    27    16    23    1
    28    23    24    1
    29     6     1   ar
    30     4     3   ar
    31    35    36   ar
    32     3     2   ar
    33     2     1   ar
    34     2     8    1
    35     1     9    1
    36    38    30    1
    37    38    41    1
    38    38    39    1
    39     9    12    1
    40     9    10    1
    41    30    31   ar
    42    36    42    1
    43    36    33   ar
    44    42    43    1
    45    42    54    1
    46    43    44    1
    47    31    33   ar
    48    31    34    1
    49    33    46    1
    50    51    47    1
    51    46    45   ar
    52    46    47   ar
    53    53    45    1
    54    53    56    1
    55    45    50   ar
    56    47    48   ar
    57    50    49   ar
    58    48    49   ar
    59    48    57    1
    60    49    52    1
    61    57    58    3
    62    58    59    1
