@<TRIPOS>MOLECULE
mol_data/noopt/geoms/mol2/6ie6ie-6ie.out
 44 46 0 0 0
SMALL
GASTEIGER

@<TRIPOS>ATOM
      1 C          -4.5775   -2.0270    0.0001 C.ar    1  LIG1        0.0389
      2 C          -3.1706   -2.0270    0.0001 C.ar    1  LIG1       -0.0404
      3 C          -2.5039   -0.8004    0.0001 C.ar    1  LIG1       -0.0546
      4 C          -3.2580    0.3743   -0.0001 C.ar    1  LIG1       -0.0174
      5 C          -4.6612    0.2715   -0.0003 C.ar    1  LIG1        0.0764
      6 N          -5.3207   -0.9034   -0.0001 N.ar    1  LIG1       -0.2515
      7 H          -1.4054   -0.7607   -0.0009 H       1  LIG1        0.0622
      8 H          -2.5135   -3.1487    0.0004 H       1  LIG1        0.0635
      9 C          -5.2433   -3.1440    0.0002 C.3     1  LIG1       -0.0223
     10 H          -4.6754   -3.8976    0.5047 H       1  LIG1        0.0292
     11 H          -5.4259   -3.4505   -1.0086 H       1  LIG1        0.0292
     12 H          -6.1763   -3.0029    0.5046 H       1  LIG1        0.0292
     13 C          -2.6846    1.5410   -0.0003 C.3     1  LIG1       -0.0033
     14 C          -2.1548    2.6190   -0.0005 C.3     1  LIG1       -0.0262
     15 H          -1.6828    3.5793   -0.0006 H       1  LIG1        0.0313
     16 C          -4.8196    2.6153   -0.0003 C.ar    1  LIG1        0.0515
     17 C          -5.4065    1.3366   -0.0004 C.ar    1  LIG1        0.0222
     18 C          -6.7994    1.2424   -0.0003 C.ar    1  LIG1       -0.0453
     19 C          -7.5524    2.4178   -0.0003 C.ar    1  LIG1       -0.0168
     20 C          -6.8736    3.6502   -0.0004 C.ar    1  LIG1        0.0765
     21 N          -5.5307    3.7594   -0.0003 N.ar    1  LIG1       -0.2506
     22 H          -7.2937    0.2606   -0.0014 H       1  LIG1        0.0628
     23 C          -3.5268    2.7544   -0.0003 C.3     1  LIG1       -0.0043
     24 H          -3.2656    3.6611    0.5042 H       1  LIG1        0.0332
     25 H          -3.1721    2.7926   -1.0091 H       1  LIG1        0.0332
     26 H          -3.0787    1.9238    0.5041 H       1  LIG1        0.0358
     27 C          -8.8520    2.3834   -0.0004 C.3     1  LIG1       -0.0033
     28 C         -10.0528    2.3516   -0.0005 C.3     1  LIG1       -0.0262
     29 H         -11.1224    2.3232   -0.0006 H       1  LIG1        0.0313
     30 C          -8.9376    4.7719   -0.0001 C.ar    1  LIG1        0.0509
     31 C          -7.5307    4.7719   -0.0003 C.ar    1  LIG1        0.0231
     32 C          -6.8640    5.9985   -0.0001 C.ar    1  LIG1       -0.0340
     33 C          -7.6181    7.1732    0.0002 C.ar    1  LIG1        0.0434
     34 C          -9.0213    7.0704    0.0002 C.ar    1  LIG1        0.0433
     35 N          -9.6808    5.8955    0.0002 N.ar    1  LIG1       -0.2580
     36 H          -5.7655    6.0382   -0.0012 H       1  LIG1        0.0637
     37 H          -9.7666    8.1355    0.0005 H       1  LIG1        0.0842
     38 C          -9.6034    3.6549   -0.0002 C.3     1  LIG1       -0.0043
     39 H          -9.0356    2.9012    0.5043 H       1  LIG1        0.0358
     40 H          -9.7859    3.3486   -1.0090 H       1  LIG1        0.0332
     41 H         -10.5365    3.7959    0.5042 H       1  LIG1        0.0332
     42 C          -7.0447    8.3399    0.0002 C.1     1  LIG1       -0.0681
     43 C          -6.5149    9.4179    0.0002 C.1     1  LIG1       -0.1139
     44 H          -6.0430   10.3782    0.0002 H       1  LIG1        0.1232
@<TRIPOS>BOND
     1    25    23    1
     2    40    38    1
     3    11     9    1
     4    22    18    1
     5    36    32    1
     6     7     3    1
     7    15    14    1
     8    29    28    1
     9    28    27    1
    10    14    13    1
    11    17    18   ar
    12    17     5    1
    13    17    16   ar
    14    27    19    1
    15    27    39    1
    16    20    19   ar
    17    20    31    1
    18    20    21   ar
    19    18    19   ar
    20    13     4    1
    21    13    26    1
    22     5     6   ar
    23     5     4   ar
    24    31    30   ar
    25    31    32   ar
    26    16    21   ar
    27    16    23    1
    28    23    24    1
    29    38    30    1
    30    38    41    1
    31     6     1   ar
    32     4     3   ar
    33    30    35   ar
    34    32    33   ar
    35     1     2   ar
    36     1     9    1
    37     2     3   ar
    38     2     8    1
    39    35    34   ar
    40    34    33   ar
    41    34    37    1
    42    33    42    1
    43    42    43    3
    44     9    12    1
    45     9    10    1
    46    43    44    1
