@<TRIPOS>MOLECULE
mol_data/noopt/geoms/mol2/6ie6ie-6ie-6ie-.out
 58 61 0 0 0
SMALL
GASTEIGER

@<TRIPOS>ATOM
      1 C          -4.5775   -2.0270    0.0001 C.ar    1  LIG1        0.0389
      2 C          -3.1706   -2.0270    0.0001 C.ar    1  LIG1       -0.0404
      3 C          -2.5039   -0.8004    0.0001 C.ar    1  LIG1       -0.0546
      4 C          -3.2580    0.3743   -0.0001 C.ar    1  LIG1       -0.0174
      5 C          -4.6612    0.2715   -0.0003 C.ar    1  LIG1        0.0765
      6 N          -5.3207   -0.9034   -0.0001 N.ar    1  LIG1       -0.2515
      7 H          -1.4054   -0.7607   -0.0009 H       1  LIG1        0.0622
      8 H          -2.5135   -3.1487    0.0004 H       1  LIG1        0.0635
      9 C          -5.2433   -3.1440    0.0002 C.3     1  LIG1       -0.0223
     10 H          -4.6754   -3.8976    0.5047 H       1  LIG1        0.0292
     11 H          -5.4259   -3.4505   -1.0086 H       1  LIG1        0.0292
     12 H          -6.1763   -3.0029    0.5046 H       1  LIG1        0.0292
     13 C          -2.6846    1.5410   -0.0003 C.3     1  LIG1       -0.0033
     14 C          -2.1548    2.6190   -0.0005 C.3     1  LIG1       -0.0262
     15 H          -1.6828    3.5793   -0.0006 H       1  LIG1        0.0313
     16 C          -4.8196    2.6153   -0.0003 C.ar    1  LIG1        0.0516
     17 C          -5.4065    1.3366   -0.0004 C.ar    1  LIG1        0.0231
     18 C          -6.7994    1.2424   -0.0003 C.ar    1  LIG1       -0.0333
     19 C          -7.5524    2.4178   -0.0003 C.ar    1  LIG1        0.0513
     20 C          -6.8736    3.6502   -0.0004 C.ar    1  LIG1        0.0884
     21 N          -5.5307    3.7594   -0.0003 N.ar    1  LIG1       -0.2497
     22 H          -7.2937    0.2606   -0.0014 H       1  LIG1        0.0637
     23 C          -3.5268    2.7544   -0.0003 C.3     1  LIG1       -0.0043
     24 H          -3.2656    3.6611    0.5042 H       1  LIG1        0.0332
     25 H          -3.1721    2.7926   -1.0091 H       1  LIG1        0.0332
     26 H          -3.0787    1.9238    0.5041 H       1  LIG1        0.0358
     27 C          -8.8520    2.3834   -0.0004 C.1     1  LIG1       -0.0675
     28 C         -10.0528    2.3516   -0.0005 C.1     1  LIG1       -0.1138
     29 H         -11.1224    2.3232   -0.0006 H       1  LIG1        0.1232
     30 C          -6.8427    5.9991   -0.0000 C.ar    1  LIG1        0.0482
     31 C          -7.5307    4.7719   -0.0003 C.ar    1  LIG1        0.0238
     32 C          -8.9267    4.7902   -0.0001 C.ar    1  LIG1       -0.0333
     33 C          -9.5826    6.0224    0.0002 C.ar    1  LIG1        0.0513
     34 C          -8.8067    7.1961    0.0002 C.ar    1  LIG1        0.0884
     35 N          -7.4594    7.1968    0.0002 N.ar    1  LIG1       -0.2499
     36 H          -9.4985    3.8514   -0.0012 H       1  LIG1        0.0637
     37 C          -5.5429    6.0336   -0.0001 C.3     1  LIG1       -0.0217
     38 H          -5.2095    6.9164    0.5043 H       1  LIG1        0.0293
     39 H          -5.1864    6.0431   -1.0090 H       1  LIG1        0.0293
     40 H          -5.1632    5.1697    0.5042 H       1  LIG1        0.0293
     41 C         -10.8807    6.0928    0.0002 C.1     1  LIG1       -0.0675
     42 C         -12.0801    6.1578    0.0002 C.1     1  LIG1       -0.1138
     43 H         -13.1486    6.2157    0.0002 H       1  LIG1        0.1232
     44 C          -8.5867    9.5349    0.0008 C.ar    1  LIG1        0.0475
     45 C          -9.3714    8.3671    0.0005 C.ar    1  LIG1        0.0237
     46 C         -10.7613    8.4977    0.0008 C.ar    1  LIG1       -0.0339
     47 C         -11.3158    9.7788    0.0012 C.ar    1  LIG1        0.0434
     48 C         -10.4479   10.8862    0.0013 C.ar    1  LIG1        0.0433
     49 N          -9.1049   10.7784    0.0012 N.ar    1  LIG1       -0.2583
     50 H         -11.4069    7.6081   -0.0005 H       1  LIG1        0.0637
     51 H         -10.9164   12.0988    0.0018 H       1  LIG1        0.0842
     52 C          -7.2883    9.4646    0.0006 C.3     1  LIG1       -0.0217
     53 H          -6.8849   10.3176    0.5050 H       1  LIG1        0.0293
     54 H          -6.9323    9.4454   -1.0083 H       1  LIG1        0.0293
     55 H          -6.9794    8.5729    0.5049 H       1  LIG1        0.0293
     56 C         -12.6040    9.9535    0.0014 C.1     1  LIG1       -0.0681
     57 C         -13.7943   10.1149    0.0015 C.1     1  LIG1       -0.1139
     58 H         -14.8546   10.2587    0.0016 H       1  LIG1        0.1232
@<TRIPOS>BOND
     1    25    23    1
     2    39    37    1
     3    11     9    1
     4    54    52    1
     5    22    18    1
     6    36    32    1
     7     7     3    1
     8    15    14    1
     9    29    28    1
    10    28    27    3
    11    14    13    1
    12    50    46    1
    13    17    18   ar
    14    17     5    1
    15    17    16   ar
    16    27    19    1
    17    20    19   ar
    18    20    31    1
    19    20    21   ar
    20    18    19   ar
    21    13     4    1
    22    13    26    1
    23     5     4   ar
    24     5     6   ar
    25    31    32   ar
    26    31    30   ar
    27    16    21   ar
    28    16    23    1
    29    23    24    1
    30    37    30    1
    31    37    40    1
    32    37    38    1
    33     4     3   ar
    34     6     1   ar
    35    32    33   ar
    36    30    35   ar
    37     1     2   ar
    38     1     9    1
    39     2     3   ar
    40     2     8    1
    41    33    34   ar
    42    33    41    1
    43    34    35   ar
    44    34    45    1
    45    41    42    3
    46    42    43    1
    47     9    12    1
    48     9    10    1
    49    45    46   ar
    50    45    44   ar
    51    52    44    1
    52    52    55    1
    53    52    53    1
    54    46    47   ar
    55    44    49   ar
    56    47    48   ar
    57    47    56    1
    58    49    48   ar
    59    48    51    1
    60    56    57    3
    61    57    58    1
