@<TRIPOS>MOLECULE
mol_data/noopt/geoms/mol2/6ie6ie-.out
 30 31 0 0 0
SMALL
GASTEIGER

@<TRIPOS>ATOM
      1 C          -4.5775   -2.0270    0.0001 C.ar    1  LIG1        0.0389
      2 C          -3.1706   -2.0270    0.0001 C.ar    1  LIG1       -0.0404
      3 C          -2.5039   -0.8004    0.0001 C.ar    1  LIG1       -0.0546
      4 C          -3.2580    0.3743   -0.0001 C.ar    1  LIG1       -0.0174
      5 C          -4.6612    0.2715   -0.0003 C.ar    1  LIG1        0.0765
      6 N          -5.3207   -0.9034   -0.0001 N.ar    1  LIG1       -0.2515
      7 H          -1.4054   -0.7607   -0.0009 H       1  LIG1        0.0622
      8 H          -2.5135   -3.1487    0.0004 H       1  LIG1        0.0635
      9 C          -5.2433   -3.1440    0.0002 C.3     1  LIG1       -0.0223
     10 H          -4.6754   -3.8976    0.5047 H       1  LIG1        0.0292
     11 H          -5.4259   -3.4505   -1.0086 H       1  LIG1        0.0292
     12 H          -6.1763   -3.0029    0.5046 H       1  LIG1        0.0292
     13 C          -2.6846    1.5410   -0.0003 C.3     1  LIG1       -0.0033
     14 C          -2.1548    2.6190   -0.0005 C.3     1  LIG1       -0.0262
     15 H          -1.6828    3.5793   -0.0006 H       1  LIG1        0.0313
     16 C          -4.8196    2.6153   -0.0003 C.ar    1  LIG1        0.0509
     17 C          -5.4065    1.3366   -0.0004 C.ar    1  LIG1        0.0231
     18 C          -6.7994    1.2424   -0.0003 C.ar    1  LIG1       -0.0340
     19 C          -7.5524    2.4178   -0.0003 C.ar    1  LIG1        0.0434
     20 C          -6.8736    3.6502   -0.0004 C.ar    1  LIG1        0.0433
     21 N          -5.5307    3.7594   -0.0003 N.ar    1  LIG1       -0.2580
     22 H          -7.2937    0.2606   -0.0014 H       1  LIG1        0.0637
     23 H          -7.5307    4.7719   -0.0003 H       1  LIG1        0.0842
     24 C          -3.5268    2.7544   -0.0003 C.3     1  LIG1       -0.0043
     25 H          -3.2656    3.6611    0.5042 H       1  LIG1        0.0332
     26 H          -3.1721    2.7926   -1.0091 H       1  LIG1        0.0332
     27 H          -3.0787    1.9238    0.5041 H       1  LIG1        0.0358
     28 C          -8.8520    2.3834   -0.0004 C.1     1  LIG1       -0.0681
     29 C         -10.0528    2.3516   -0.0005 C.1     1  LIG1       -0.1139
     30 H         -11.1224    2.3232   -0.0006 H       1  LIG1        0.1232
@<TRIPOS>BOND
     1    26    24    1
     2    11     9    1
     3    22    18    1
     4     7     3    1
     5    15    14    1
     6    30    29    1
     7    29    28    3
     8    14    13    1
     9    17    18   ar
    10    17     5    1
    11    17    16   ar
    12    28    19    1
    13    20    19   ar
    14    20    23    1
    15    20    21   ar
    16    18    19   ar
    17    13     4    1
    18    13    27    1
    19     5     6   ar
    20     5     4   ar
    21    16    21   ar
    22    16    24    1
    23    24    25    1
    24     6     1   ar
    25     4     3   ar
    26     1     2   ar
    27     1     9    1
    28     3     2   ar
    29     2     8    1
    30     9    12    1
    31     9    10    1
