@<TRIPOS>MOLECULE
mol_data/noopt/geoms/mol2/6ie6ie6ie.out
 44 46 0 0 0
SMALL
GASTEIGER

@<TRIPOS>ATOM
      1 C          -4.5775   -2.0270    0.0001 C.ar    1  LIG1        0.0390
      2 C          -3.1706   -2.0270    0.0001 C.ar    1  LIG1       -0.0395
      3 C          -2.5039   -0.8004    0.0001 C.ar    1  LIG1       -0.0426
      4 C          -3.2580    0.3743   -0.0001 C.ar    1  LIG1        0.0507
      5 C          -4.6612    0.2715   -0.0003 C.ar    1  LIG1        0.0883
      6 N          -5.3207   -0.9034   -0.0001 N.ar    1  LIG1       -0.2506
      7 H          -1.4054   -0.7607   -0.0009 H       1  LIG1        0.0631
      8 H          -2.5135   -3.1487    0.0004 H       1  LIG1        0.0636
      9 C          -5.2433   -3.1440    0.0002 C.3     1  LIG1       -0.0223
     10 H          -4.6754   -3.8976    0.5047 H       1  LIG1        0.0292
     11 H          -5.4259   -3.4505   -1.0086 H       1  LIG1        0.0292
     12 H          -6.1763   -3.0029    0.5046 H       1  LIG1        0.0292
     13 C          -2.6846    1.5410   -0.0003 C.1     1  LIG1       -0.0675
     14 C          -2.1548    2.6190   -0.0005 C.1     1  LIG1       -0.1138
     15 H          -1.6828    3.5793   -0.0006 H       1  LIG1        0.1232
     16 C          -6.8088    1.2233   -0.0003 C.ar    1  LIG1        0.0482
     17 C          -5.4065    1.3366   -0.0004 C.ar    1  LIG1        0.0238
     18 C          -4.8408    2.6129   -0.0003 C.ar    1  LIG1       -0.0333
     19 C          -5.6871    3.7231   -0.0003 C.ar    1  LIG1        0.0513
     20 C          -7.0774    3.5076   -0.0004 C.ar    1  LIG1        0.0884
     21 N          -7.6401    2.2834   -0.0003 N.ar    1  LIG1       -0.2499
     22 H          -3.7491    2.7410   -0.0014 H       1  LIG1        0.0637
     23 C          -7.3825    0.0563   -0.0003 C.3     1  LIG1       -0.0217
     24 H          -6.7558   -0.6491    0.5041 H       1  LIG1        0.0293
     25 H          -7.5398   -0.2638   -1.0091 H       1  LIG1        0.0293
     26 H          -8.3239    0.1217    0.5041 H       1  LIG1        0.0293
     27 C          -5.2095    4.9322   -0.0004 C.1     1  LIG1       -0.0675
     28 C          -4.7682    6.0494   -0.0004 C.1     1  LIG1       -0.1138
     29 H          -4.3752    7.0446   -0.0005 H       1  LIG1        0.1232
     30 C          -9.2948    4.2833   -0.0001 C.ar    1  LIG1        0.0475
     31 C          -7.9061    4.5092   -0.0003 C.ar    1  LIG1        0.0237
     32 C          -7.4450    5.8270   -0.0001 C.ar    1  LIG1       -0.0339
     33 C          -8.3780    6.8653    0.0002 C.ar    1  LIG1        0.0434
     34 C          -9.7465    6.5385    0.0002 C.ar    1  LIG1        0.0433
     35 N         -10.2087    5.2730    0.0002 N.ar    1  LIG1       -0.2583
     36 H          -6.3672    6.0425   -0.0012 H       1  LIG1        0.0637
     37 H         -10.6531    7.4701    0.0005 H       1  LIG1        0.0842
     38 C          -9.7725    3.0739   -0.0002 C.3     1  LIG1       -0.0217
     39 H          -9.0910    2.4212    0.5042 H       1  LIG1        0.0293
     40 H          -9.9035    2.7422   -1.0090 H       1  LIG1        0.0293
     41 H         -10.7161    3.0632    0.5042 H       1  LIG1        0.0293
     42 C          -7.9994    8.1090    0.0002 C.1     1  LIG1       -0.0681
     43 C          -7.6495    9.2581    0.0002 C.1     1  LIG1       -0.1139
     44 H          -7.3379   10.2817    0.0002 H       1  LIG1        0.1232
@<TRIPOS>BOND
     1    25    23    1
     2    40    38    1
     3    11     9    1
     4    22    18    1
     5    36    32    1
     6     7     3    1
     7    15    14    1
     8    29    28    1
     9    14    13    3
    10    28    27    3
    11    17     5    1
    12    17    16   ar
    13    17    18   ar
    14    20    21   ar
    15    20    31    1
    16    20    19   ar
    17    27    19    1
    18    13     4    1
    19     5     6   ar
    20     5     4   ar
    21    16    23    1
    22    16    21   ar
    23    18    19   ar
    24    23    26    1
    25    23    24    1
    26    31    30   ar
    27    31    32   ar
    28    38    30    1
    29    38    41    1
    30    38    39    1
    31     6     1   ar
    32     4     3   ar
    33    30    35   ar
    34    32    33   ar
    35     1     2   ar
    36     1     9    1
    37     2     3   ar
    38     2     8    1
    39    35    34   ar
    40    34    33   ar
    41    34    37    1
    42    33    42    1
    43    42    43    3
    44     9    12    1
    45     9    10    1
    46    43    44    1
