@<TRIPOS>MOLECULE
mol_data/noopt/geoms/mol2/6ie6ie.out
 30 31 0 0 0
SMALL
GASTEIGER

@<TRIPOS>ATOM
      1 C          -4.5775   -2.0270    0.0001 C.ar    1  LIG1        0.0390
      2 C          -3.1706   -2.0270    0.0001 C.ar    1  LIG1       -0.0395
      3 C          -2.5039   -0.8004    0.0001 C.ar    1  LIG1       -0.0426
      4 C          -3.2580    0.3743   -0.0001 C.ar    1  LIG1        0.0507
      5 C          -4.6612    0.2715   -0.0003 C.ar    1  LIG1        0.0883
      6 N          -5.3207   -0.9034   -0.0001 N.ar    1  LIG1       -0.2506
      7 H          -1.4054   -0.7607   -0.0009 H       1  LIG1        0.0631
      8 H          -2.5135   -3.1487    0.0004 H       1  LIG1        0.0636
      9 C          -5.2433   -3.1440    0.0002 C.3     1  LIG1       -0.0223
     10 H          -4.6754   -3.8976    0.5047 H       1  LIG1        0.0292
     11 H          -5.4259   -3.4505   -1.0086 H       1  LIG1        0.0292
     12 H          -6.1763   -3.0029    0.5046 H       1  LIG1        0.0292
     13 C          -2.6846    1.5410   -0.0003 C.1     1  LIG1       -0.0675
     14 C          -2.1548    2.6190   -0.0005 C.1     1  LIG1       -0.1138
     15 H          -1.6828    3.5793   -0.0006 H       1  LIG1        0.1232
     16 C          -6.8088    1.2233   -0.0003 C.ar    1  LIG1        0.0475
     17 C          -5.4065    1.3366   -0.0004 C.ar    1  LIG1        0.0237
     18 C          -4.8408    2.6129   -0.0003 C.ar    1  LIG1       -0.0339
     19 C          -5.6871    3.7231   -0.0003 C.ar    1  LIG1        0.0434
     20 C          -7.0774    3.5076   -0.0004 C.ar    1  LIG1        0.0433
     21 N          -7.6401    2.2834   -0.0003 N.ar    1  LIG1       -0.2583
     22 H          -3.7491    2.7410   -0.0014 H       1  LIG1        0.0637
     23 H          -7.9061    4.5092   -0.0003 H       1  LIG1        0.0842
     24 C          -7.3825    0.0563   -0.0003 C.3     1  LIG1       -0.0217
     25 H          -6.7558   -0.6491    0.5041 H       1  LIG1        0.0293
     26 H          -7.5398   -0.2638   -1.0091 H       1  LIG1        0.0293
     27 H          -8.3239    0.1217    0.5041 H       1  LIG1        0.0293
     28 C          -5.2095    4.9322   -0.0004 C.1     1  LIG1       -0.0681
     29 C          -4.7682    6.0494   -0.0004 C.1     1  LIG1       -0.1139
     30 H          -4.3752    7.0446   -0.0005 H       1  LIG1        0.1232
@<TRIPOS>BOND
     1    26    24    1
     2    11     9    1
     3    22    18    1
     4     7     3    1
     5    15    14    1
     6    30    29    1
     7    14    13    3
     8    29    28    3
     9    17     5    1
    10    17    16   ar
    11    17    18   ar
    12    20    21   ar
    13    20    23    1
    14    20    19   ar
    15    28    19    1
    16     5     6   ar
    17     5     4   ar
    18    13     4    1
    19    16    24    1
    20    16    21   ar
    21    18    19   ar
    22    24    27    1
    23    24    25    1
    24     6     1   ar
    25     4     3   ar
    26     1     2   ar
    27     1     9    1
    28     3     2   ar
    29     2     8    1
    30     9    12    1
    31     9    10    1
