@<TRIPOS>MOLECULE
mol_data/noopt/geoms/mol2/6ie6dh(40)13el(280)13af(180).out
 51 54 0 0 0
SMALL
GASTEIGER

@<TRIPOS>ATOM
      1 C          -4.5775   -2.0270    0.0001 C.ar    1  LIG1        0.0390
      2 C          -3.1706   -2.0270    0.0001 C.ar    1  LIG1       -0.0395
      3 C          -2.5039   -0.8004    0.0001 C.ar    1  LIG1       -0.0426
      4 C          -3.2580    0.3743   -0.0001 C.ar    1  LIG1        0.0507
      5 C          -4.6612    0.2715   -0.0003 C.ar    1  LIG1        0.0894
      6 N          -5.3207   -0.9034   -0.0001 N.ar    1  LIG1       -0.2506
      7 H          -1.4054   -0.7607   -0.0009 H       1  LIG1        0.0631
      8 H          -2.5135   -3.1487    0.0004 H       1  LIG1        0.0636
      9 C          -5.2433   -3.1440    0.0002 C.3     1  LIG1       -0.0223
     10 H          -4.6754   -3.8976    0.5047 H       1  LIG1        0.0292
     11 H          -5.4259   -3.4505   -1.0086 H       1  LIG1        0.0292
     12 H          -6.1763   -3.0029    0.5046 H       1  LIG1        0.0292
     13 C          -2.6846    1.5410   -0.0003 C.1     1  LIG1       -0.0675
     14 C          -2.1548    2.6190   -0.0005 C.1     1  LIG1       -0.1138
     15 H          -1.6828    3.5793   -0.0006 H       1  LIG1        0.1232
     16 C          -6.5765    1.3858   -0.7802 C.ar    1  LIG1        0.1501
     17 C          -5.4065    1.3366   -0.0004 C.ar    1  LIG1        0.0392
     18 C          -5.0697    2.4528    0.7676 C.ar    1  LIG1       -0.0270
     19 C          -5.9052    3.5705    0.7310 C.ar    1  LIG1        0.0531
     20 C          -7.0537    3.5242   -0.0803 C.ar    1  LIG1        0.1105
     21 N          -7.3938    2.4557   -0.8273 N.ar    1  LIG1       -0.2323
     22 H          -4.1627    2.4517    1.3886 H       1  LIG1        0.0644
     23 N          -7.2454   -0.5228   -2.1570 N.1     1  LIG1       -0.1893
     24 C          -6.9319    0.3717   -1.5118 C.1     1  LIG1        0.1198
     25 N          -5.6352    4.6344    1.4276 N.pl3   1  LIG1       -0.3563
     26 H          -4.7125    4.9512    1.2082 H       1  LIG1        0.1424
     27 H          -6.2953    5.3529    1.2082 H       1  LIG1        0.1424
     28 C          -7.8625    4.5397   -0.1475 C.ar    1  LIG1        0.0865
     29 C          -8.2265    5.3086   -1.2079 C.ar    1  LIG1        0.0937
     30 C          -9.1454    6.2952   -0.7253 C.ar    1  LIG1        0.1626
     31 C          -9.3039    6.0847    0.6084 C.ar    1  LIG1        0.1069
     32 N          -8.5199    5.0112    0.9663 N.ar    1  LIG1       -0.3478
     33 H          -8.4414    4.6357    1.8833 H       1  LIG1        0.1661
     34 C          -7.8131    5.1715   -2.4327 C.1     1  LIG1       -0.0638
     35 C          -7.4311    5.0448   -3.5645 C.1     1  LIG1       -0.1137
     36 H          -7.0909    4.9319   -4.5727 H       1  LIG1        0.1232
     37 O          -9.7238    7.2223   -1.4295 O.3     1  LIG1       -0.4917
     38 C          -8.7925    8.2762   -1.6881 C.3     1  LIG1        0.0789
     39 H          -9.2689    9.0389   -2.2679 H       1  LIG1        0.0660
     40 H          -8.4564    8.6907   -0.7607 H       1  LIG1        0.0660
     41 H          -7.9553    7.8875   -2.2293 H       1  LIG1        0.0660
     42 C         -10.0314    6.7160    1.4814 C.ar    1  LIG1        0.0701
     43 C         -11.2027    6.3628    2.0741 C.ar    1  LIG1        0.0067
     44 C         -11.5728    7.4271    2.9578 C.ar    1  LIG1        0.1347
     45 C         -10.6105    8.3831    2.8676 C.ar    1  LIG1        0.0442
     46 N          -9.6651    7.9520    1.9645 N.ar    1  LIG1       -0.3564
     47 H          -8.8475    8.4533    1.7032 H       1  LIG1        0.1655
     48 H         -10.5004    9.5288    3.4720 H       1  LIG1        0.0844
     49 H         -11.8631    5.2615    1.8720 H       1  LIG1        0.0676
     50 O         -12.6324    7.4739    3.7096 O.3     1  LIG1       -0.5053
     51 H         -12.9335    6.5814    3.8949 H       1  LIG1        0.2922
@<TRIPOS>BOND
     1    36    35    1
     2    35    34    3
     3    34    29    1
     4    39    38    1
     5    41    38    1
     6    23    24    3
     7    38    37    1
     8    38    40    1
     9    24    16    1
    10    37    30    1
    11    29    30   ar
    12    29    28   ar
    13    11     9    1
    14    21    16   ar
    15    21    20   ar
    16    16    17   ar
    17    30    31   ar
    18    28    20    1
    19    28    32   ar
    20    20    19   ar
    21     7     3    1
    22    15    14    1
    23    14    13    3
    24    17     5    1
    25    17    18   ar
    26    13     4    1
    27     5     4   ar
    28     5     6   ar
    29     4     3   ar
    30     6     1   ar
    31     2     3   ar
    32     2     1   ar
    33     2     8    1
    34     1     9    1
    35     9    12    1
    36     9    10    1
    37    31    32   ar
    38    31    42    1
    39    19    18   ar
    40    19    25    1
    41    18    22    1
    42    32    33    1
    43    27    25    1
    44    26    25    1
    45    42    46   ar
    46    42    43   ar
    47    47    46    1
    48    49    43    1
    49    46    45   ar
    50    43    44   ar
    51    45    44   ar
    52    45    48    1
    53    44    50    1
    54    50    51    1
