@<TRIPOS>MOLECULE
mol_data/noopt/geoms/mol2/6ie6ld(230)13fh12fi(40).out
 52 55 0 0 0
SMALL
GASTEIGER

@<TRIPOS>ATOM
      1 C          -4.5775   -2.0270    0.0001 C.ar    1  LIG1        0.0390
      2 C          -3.1706   -2.0270    0.0001 C.ar    1  LIG1       -0.0395
      3 C          -2.5039   -0.8004    0.0001 C.ar    1  LIG1       -0.0426
      4 C          -3.2580    0.3743   -0.0001 C.ar    1  LIG1        0.0508
      5 C          -4.6612    0.2715   -0.0003 C.ar    1  LIG1        0.0917
      6 N          -5.3207   -0.9034   -0.0001 N.ar    1  LIG1       -0.2505
      7 H          -1.4054   -0.7607   -0.0009 H       1  LIG1        0.0631
      8 H          -2.5135   -3.1487    0.0004 H       1  LIG1        0.0636
      9 C          -5.2433   -3.1440    0.0002 C.3     1  LIG1       -0.0223
     10 H          -4.6754   -3.8976    0.5047 H       1  LIG1        0.0292
     11 H          -5.4259   -3.4505   -1.0086 H       1  LIG1        0.0292
     12 H          -6.1763   -3.0029    0.5046 H       1  LIG1        0.0292
     13 C          -2.6846    1.5410   -0.0003 C.1     1  LIG1       -0.0675
     14 C          -2.1548    2.6190   -0.0005 C.1     1  LIG1       -0.1138
     15 H          -1.6828    3.5793   -0.0006 H       1  LIG1        0.1232
     16 C          -5.1745    2.3670    0.9290 C.ar    1  LIG1        0.2246
     17 C          -5.4065    1.3366   -0.0004 C.ar    1  LIG1        0.0643
     18 C          -6.4498    1.4870   -0.9158 C.ar    1  LIG1       -0.0279
     19 C          -7.2194    2.6508   -0.8724 C.ar    1  LIG1        0.0801
     20 C          -6.9099    3.6248    0.0945 C.ar    1  LIG1        0.1119
     21 N          -5.9070    3.4962    0.9850 N.ar    1  LIG1       -0.2094
     22 H          -6.6618    0.7027   -1.6562 H       1  LIG1        0.0639
     23 O          -4.2149    2.2731    1.8011 O.3     1  LIG1       -0.4792
     24 C          -3.9939    0.8971    2.1212 C.3     1  LIG1        0.0804
     25 H          -3.2039    0.8203    2.8389 H       1  LIG1        0.0660
     26 H          -4.8893    0.4777    2.5302 H       1  LIG1        0.0660
     27 H          -3.7230    0.3636    1.2342 H       1  LIG1        0.0660
     28 N          -9.0683    3.0034   -2.4354 N.1     1  LIG1       -0.1908
     29 C          -8.2018    2.8382   -1.7029 C.1     1  LIG1        0.1014
     30 C          -7.5975    4.7252    0.1744 C.ar    1  LIG1        0.1107
     31 C          -7.1867    6.0199    0.2283 C.ar    1  LIG1        0.1651
     32 C          -8.3594    6.8376    0.3106 C.ar    1  LIG1        0.0961
     33 C          -9.4353    6.0067    0.3017 C.ar    1  LIG1        0.1108
     34 N          -8.9733    4.7125    0.2189 N.ar    1  LIG1       -0.3460
     35 H          -9.5428    3.8982    0.1944 H       1  LIG1        0.1662
     36 O          -5.9549    6.4354    0.2099 O.3     1  LIG1       -0.5030
     37 H          -5.9406    7.3953    0.2053 H       1  LIG1        0.2923
     38 N          -8.3931    8.1353    0.3807 N.pl3   1  LIG1       -0.3534
     39 H          -7.5861    8.5146   -0.0721 H       1  LIG1        0.1425
     40 H          -9.2185    8.4723   -0.0721 H       1  LIG1        0.1425
     41 C         -10.7066    6.2722    0.3576 C.ar    1  LIG1        0.1942
     42 C         -11.4849    7.2311    0.9724 C.ar    1  LIG1        0.1671
     43 C         -12.8580    6.9432    0.6139 C.ar    1  LIG1        0.0295
     44 C         -12.8278    5.8271   -0.1966 C.ar    1  LIG1        0.0992
     45 O         -11.5124    5.3948   -0.3694 O.2     1  LIG1       -0.4573
     46 H         -13.7159    5.1083   -0.8167 H       1  LIG1        0.1033
     47 O         -11.0896    8.2111    1.7297 O.3     1  LIG1       -0.5030
     48 H         -11.8315    8.7911    1.9164 H       1  LIG1        0.2923
     49 C         -13.8992    7.6220    0.9960 C.3     1  LIG1       -0.0332
     50 H         -14.5378    6.9953    1.5830 H       1  LIG1        0.0280
     51 H         -14.4332    7.9700    0.1365 H       1  LIG1        0.0280
     52 H         -13.5835    8.4591    1.5829 H       1  LIG1        0.0280
@<TRIPOS>BOND
     1    28    29    3
     2    29    19    1
     3    22    18    1
     4    11     9    1
     5    18    19   ar
     6    18    17   ar
     7    19    20   ar
     8    46    44    1
     9    45    44   ar
    10    45    41   ar
    11    44    43   ar
    12    40    38    1
    13    39    38    1
    14     7     3    1
    15    15    14    1
    16    14    13    3
    17    17     5    1
    18    17    16   ar
    19    13     4    1
    20     5     6   ar
    21     5     4   ar
    22     6     1   ar
    23     4     3   ar
    24     1     2   ar
    25     1     9    1
    26     3     2   ar
    27     2     8    1
    28     9    12    1
    29     9    10    1
    30    20    30    1
    31    20    21   ar
    32    51    49    1
    33    30    34   ar
    34    30    31   ar
    35    35    34    1
    36    37    36    1
    37    36    31    1
    38    34    33   ar
    39    31    32   ar
    40    33    32   ar
    41    33    41    1
    42    32    38    1
    43    41    42   ar
    44    43    42   ar
    45    43    49    1
    46    16    21   ar
    47    16    23    1
    48    42    47    1
    49    49    52    1
    50    49    50    1
    51    27    24    1
    52    47    48    1
    53    23    24    1
    54    24    26    1
    55    24    25    1
