@<TRIPOS>MOLECULE
mol_data/noopt/geoms/mol2/6if12ff-12de12dl.out
 46 49 0 0 0
SMALL
GASTEIGER

@<TRIPOS>ATOM
      1 C          -4.5775   -2.0270    0.0001 C.ar    1  LIG1        0.0393
      2 C          -3.1706   -2.0270    0.0001 C.ar    1  LIG1       -0.0372
      3 C          -2.5039   -0.8004    0.0001 C.ar    1  LIG1       -0.0162
      4 C          -3.2580    0.3743   -0.0001 C.ar    1  LIG1        0.1459
      5 C          -4.6612    0.2715   -0.0003 C.ar    1  LIG1        0.1512
      6 N          -5.3207   -0.9034   -0.0001 N.ar    1  LIG1       -0.2450
      7 H          -1.4054   -0.7607   -0.0009 H       1  LIG1        0.0655
      8 H          -2.5135   -3.1487    0.0004 H       1  LIG1        0.0636
      9 C          -5.2433   -3.1440    0.0002 C.3     1  LIG1       -0.0223
     10 H          -4.6754   -3.8976    0.5047 H       1  LIG1        0.0292
     11 H          -5.4259   -3.4505   -1.0086 H       1  LIG1        0.0292
     12 H          -6.1763   -3.0029    0.5046 H       1  LIG1        0.0292
     13 O          -2.6846    1.5410   -0.0003 O.3     1  LIG1       -0.5045
     14 H          -3.3554    2.2278   -0.0003 H       1  LIG1        0.2922
     15 C          -5.4065    1.3366   -0.0004 C.ar    1  LIG1        0.2025
     16 C          -5.1777    2.6969    0.0143 C.ar    1  LIG1        0.2076
     17 C          -6.4770    3.3362    0.0035 C.ar    1  LIG1        0.2091
     18 C          -7.4140    2.3237   -0.0171 C.ar    1  LIG1        0.2169
     19 O          -6.7784    1.0815   -0.0201 O.2     1  LIG1       -0.4424
     20 O          -4.0320    3.3109    0.0342 O.3     1  LIG1       -0.5008
     21 H          -4.1771    4.2599    0.0391 H       1  LIG1        0.2924
     22 O          -6.6906    4.6186    0.0120 O.3     1  LIG1       -0.5007
     23 H          -7.6359    4.7860    0.0141 H       1  LIG1        0.2924
     24 C          -8.7125    2.2634   -0.0340 C.ar    1  LIG1        0.1930
     25 C          -9.7397    3.1842   -0.0320 C.ar    1  LIG1        0.1167
     26 C         -10.9745    2.4282   -0.0591 C.ar    1  LIG1        0.0916
     27 C         -10.6196    1.0950   -0.0760 C.ar    1  LIG1        0.1887
     28 O          -9.2302    0.9677   -0.0611 O.2     1  LIG1       -0.4458
     29 N          -9.5636    5.6241    0.0091 N.1     1  LIG1       -0.1907
     30 C          -9.6461    4.4806   -0.0101 C.1     1  LIG1        0.1043
     31 C         -12.1722    2.9335   -0.0657 C.1     1  LIG1       -0.0644
     32 C         -13.2790    3.4003   -0.0718 C.1     1  LIG1       -0.1138
     33 H         -14.2648    3.8162   -0.0773 H       1  LIG1        0.1232
     34 C         -11.2629   -0.0345   -0.1018 C.ar    1  LIG1        0.1920
     35 C         -12.5901   -0.4100   -0.1213 C.ar    1  LIG1        0.1420
     36 C         -12.6112   -1.8577   -0.1465 C.ar    1  LIG1        0.1757
     37 C         -11.2949   -2.2709   -0.1408 C.ar    1  LIG1        0.1356
     38 O         -10.4446   -1.1650   -0.1135 O.2     1  LIG1       -0.4547
     39 H         -10.6842   -3.4185   -0.1546 H       1  LIG1        0.1068
     40 N         -14.5580    1.0437   -0.1154 N.1     1  LIG1       -0.1906
     41 C         -13.6357    0.3624   -0.1182 C.1     1  LIG1        0.1068
     42 O         -13.6786   -2.5996   -0.1698 O.3     1  LIG1       -0.4907
     43 C         -14.8398   -1.7651   -0.1784 C.3     1  LIG1        0.0790
     44 H         -15.7180   -2.3761   -0.1977 H       1  LIG1        0.0660
     45 H         -14.8481   -1.1564    0.7016 H       1  LIG1        0.0660
     46 H         -14.8222   -1.1384   -1.0454 H       1  LIG1        0.0660
@<TRIPOS>BOND
     1    46    43    1
     2    11     9    1
     3    44    43    1
     4    43    42    1
     5    43    45    1
     6    42    36    1
     7    39    37    1
     8    36    37   ar
     9    36    35   ar
    10    37    38   ar
    11    35    41    1
    12    35    34   ar
    13    41    40    3
    14    38    34   ar
    15    34    27    1
    16    33    32    1
    17    27    28   ar
    18    27    26   ar
    19    32    31    3
    20    31    26    1
    21    28    24   ar
    22    26    25   ar
    23    24    25   ar
    24    24    18    1
    25    25    30    1
    26    19    18   ar
    27    19    15   ar
    28    18    17   ar
    29    30    29    3
    30     7     3    1
    31    15     5    1
    32    15    16   ar
    33    14    13    1
    34     5     4   ar
    35     5     6   ar
    36    13     4    1
    37     4     3   ar
    38     6     1   ar
    39     2     3   ar
    40     2     1   ar
    41     2     8    1
    42     1     9    1
    43     9    12    1
    44     9    10    1
    45    17    22    1
    46    17    16   ar
    47    22    23    1
    48    16    20    1
    49    20    21    1
