@<TRIPOS>MOLECULE
mol_data/noopt/geoms/mol2/6if13aa-12ia-13il-.out
 48 51 0 0 0
SMALL
GASTEIGER

@<TRIPOS>ATOM
      1 C          -4.5775   -2.0270    0.0001 C.ar    1  LIG1        0.0392
      2 C          -3.1706   -2.0270    0.0001 C.ar    1  LIG1       -0.0372
      3 C          -2.5039   -0.8004    0.0001 C.ar    1  LIG1       -0.0163
      4 C          -3.2580    0.3743   -0.0001 C.ar    1  LIG1        0.1442
      5 C          -4.6612    0.2715   -0.0003 C.ar    1  LIG1        0.1286
      6 N          -5.3207   -0.9034   -0.0001 N.ar    1  LIG1       -0.2467
      7 H          -1.4054   -0.7607   -0.0009 H       1  LIG1        0.0655
      8 H          -2.5135   -3.1487    0.0004 H       1  LIG1        0.0636
      9 C          -5.2433   -3.1440    0.0002 C.3     1  LIG1       -0.0223
     10 H          -4.6754   -3.8976    0.5047 H       1  LIG1        0.0292
     11 H          -5.4259   -3.4505   -1.0086 H       1  LIG1        0.0292
     12 H          -6.1763   -3.0029    0.5046 H       1  LIG1        0.0292
     13 O          -2.6846    1.5410   -0.0003 O.3     1  LIG1       -0.5046
     14 H          -3.3554    2.2278   -0.0003 H       1  LIG1        0.2922
     15 C          -5.4065    1.3366   -0.0004 C.ar    1  LIG1        0.0691
     16 C          -5.0647    2.6523    0.0158 C.ar    1  LIG1       -0.0341
     17 C          -6.2798    3.4100    0.0080 C.ar    1  LIG1       -0.0327
     18 C          -7.3107    2.5241   -0.0144 C.ar    1  LIG1        0.0828
     19 N          -6.7805    1.2536   -0.0191 N.ar    1  LIG1       -0.3505
     20 H          -7.3063    0.4102   -0.0343 H       1  LIG1        0.1660
     21 H          -3.8561    3.1306    0.0362 H       1  LIG1        0.0639
     22 H          -6.3823    4.7059    0.0196 H       1  LIG1        0.0640
     23 C          -8.5950    2.7246   -0.0290 C.ar    1  LIG1        0.1547
     24 C          -9.4174    3.8321   -0.0400 C.ar    1  LIG1       -0.0026
     25 C         -10.7785    3.3380   -0.0542 C.ar    1  LIG1       -0.0108
     26 C         -10.6975    1.9607   -0.0510 C.ar    1  LIG1        0.1524
     27 O          -9.3616    1.5584   -0.0356 O.2     1  LIG1       -0.4516
     28 C          -9.0662    5.0841   -0.0382 C.3     1  LIG1       -0.0360
     29 H          -9.8113    5.6628    0.4668 H       1  LIG1        0.0279
     30 H          -8.9696    5.4289   -1.0465 H       1  LIG1        0.0279
     31 H          -8.1289    5.1909    0.4667 H       1  LIG1        0.0279
     32 H         -11.8510    4.0725   -0.0674 H       1  LIG1        0.0659
     33 C         -11.5537    0.9825   -0.0588 C.ar    1  LIG1        0.0886
     34 C         -12.9130    1.0000   -0.0479 C.ar    1  LIG1        0.0195
     35 C         -13.3584   -0.3608   -0.0635 C.ar    1  LIG1        0.1409
     36 C         -12.2518   -1.1501   -0.0850 C.ar    1  LIG1        0.0447
     37 N         -11.1447   -0.3318   -0.0818 N.ar    1  LIG1       -0.3550
     38 H         -10.2001   -0.6408   -0.0947 H       1  LIG1        0.1655
     39 H         -12.1396   -2.4451   -0.1049 H       1  LIG1        0.0844
     40 C         -13.6665    2.0595   -0.0257 C.3     1  LIG1       -0.0341
     41 H         -14.5802    1.8368    0.4848 H       1  LIG1        0.0279
     42 H         -13.8833    2.3642   -1.0283 H       1  LIG1        0.0279
     43 H         -13.1562    2.8495    0.4847 H       1  LIG1        0.0279
     44 O         -14.5924   -0.7700   -0.0585 O.3     1  LIG1       -0.4933
     45 C         -15.4696    0.3593   -0.0567 C.3     1  LIG1        0.0789
     46 H         -16.4851    0.0221   -0.0528 H       1  LIG1        0.0660
     47 H         -15.2871    0.9515    0.8157 H       1  LIG1        0.0660
     48 H         -15.2932    0.9494   -0.9316 H       1  LIG1        0.0660
@<TRIPOS>BOND
     1    30    28    1
     2    42    40    1
     3    11     9    1
     4    48    45    1
     5    39    36    1
     6    38    37    1
     7    36    37   ar
     8    36    35   ar
     9    37    33   ar
    10    32    25    1
    11    35    44    1
    12    35    34   ar
    13    33    26    1
    14    33    34   ar
    15    44    45    1
    16    45    46    1
    17    45    47    1
    18    25    26   ar
    19    25    24   ar
    20    26    27   ar
    21    34    40    1
    22    24    28    1
    23    24    23   ar
    24    28    31    1
    25    28    29    1
    26    27    23   ar
    27    20    19    1
    28    23    18    1
    29    40    43    1
    30    40    41    1
    31    19    18   ar
    32    19    15   ar
    33    18    17   ar
    34     7     3    1
    35    15     5    1
    36    15    16   ar
    37    14    13    1
    38    13     4    1
    39     5     6   ar
    40     5     4   ar
    41     6     1   ar
    42     4     3   ar
    43     2     1   ar
    44     2     3   ar
    45     2     8    1
    46     1     9    1
    47     9    12    1
    48     9    10    1
    49    17    16   ar
    50    17    22    1
    51    16    21    1
