@<TRIPOS>MOLECULE
mol_data/noopt/geoms/mol2/6if13hf(290)6al(250)13fh(160).out
 50 53 0 0 0
SMALL
GASTEIGER

@<TRIPOS>ATOM
      1 C          -4.5775   -2.0270    0.0001 C.ar    1  LIG1        0.0392
      2 C          -3.1706   -2.0270    0.0001 C.ar    1  LIG1       -0.0372
      3 C          -2.5039   -0.8004    0.0001 C.ar    1  LIG1       -0.0163
      4 C          -3.2580    0.3743   -0.0001 C.ar    1  LIG1        0.1442
      5 C          -4.6612    0.2715   -0.0003 C.ar    1  LIG1        0.1305
      6 N          -5.3207   -0.9034   -0.0001 N.ar    1  LIG1       -0.2467
      7 H          -1.4054   -0.7607   -0.0009 H       1  LIG1        0.0655
      8 H          -2.5135   -3.1487    0.0004 H       1  LIG1        0.0636
      9 C          -5.2433   -3.1440    0.0002 C.3     1  LIG1       -0.0223
     10 H          -4.6754   -3.8976    0.5047 H       1  LIG1        0.0292
     11 H          -5.4259   -3.4505   -1.0086 H       1  LIG1        0.0292
     12 H          -6.1763   -3.0029    0.5046 H       1  LIG1        0.0292
     13 O          -2.6846    1.5410   -0.0003 O.3     1  LIG1       -0.5046
     14 H          -3.3554    2.2278   -0.0003 H       1  LIG1        0.2922
     15 C          -5.4065    1.3366   -0.0004 C.ar    1  LIG1        0.0936
     16 C          -5.6007    2.2771   -0.9626 C.ar    1  LIG1        0.0945
     17 C          -6.5241    3.2389   -0.4403 C.ar    1  LIG1        0.1636
     18 C          -6.8550    2.8430    0.8174 C.ar    1  LIG1        0.0924
     19 N          -6.1727    1.6790    1.0909 N.ar    1  LIG1       -0.3484
     20 H          -6.2253    1.1668    1.9411 H       1  LIG1        0.1661
     21 N          -5.0469    2.2971   -2.1386 N.pl3   1  LIG1       -0.3534
     22 H          -5.3016    1.4709   -2.6410 H       1  LIG1        0.1425
     23 H          -5.3607    3.1028   -2.6411 H       1  LIG1        0.1425
     24 O          -6.9671    4.2966   -1.0529 O.3     1  LIG1       -0.5031
     25 H          -7.9110    4.2077   -1.2039 H       1  LIG1        0.2923
     26 C          -7.2237    3.5947    3.0122 C.ar    1  LIG1        0.0378
     27 C          -7.6535    3.3836    1.6893 C.ar    1  LIG1        0.0235
     28 C          -8.9496    3.7672    1.3401 C.ar    1  LIG1       -0.0071
     29 C          -9.7656    4.3434    2.3152 C.ar    1  LIG1        0.1481
     30 C          -9.2455    4.5132    3.6114 C.ar    1  LIG1        0.1322
     31 N          -7.9976    4.1490    3.9655 N.ar    1  LIG1       -0.2491
     32 H          -9.3208    3.6172    0.3164 H       1  LIG1        0.0662
     33 H          -6.0258    3.2543    3.3853 H       1  LIG1        0.0836
     34 O         -10.9800    4.7172    2.0402 O.3     1  LIG1       -0.4929
     35 C         -11.0292    6.1428    1.9391 C.3     1  LIG1        0.0789
     36 H         -12.0288    6.4500    1.7126 H       1  LIG1        0.0660
     37 H         -10.7245    6.5770    2.8685 H       1  LIG1        0.0660
     38 H         -10.3710    6.4681    1.1608 H       1  LIG1        0.0660
     39 C          -9.9666    5.0449    4.5534 C.ar    1  LIG1        0.1124
     40 C         -10.8460    4.4748    5.4192 C.ar    1  LIG1        0.1645
     41 C         -11.3658    5.5188    6.2501 C.ar    1  LIG1        0.0849
     42 C         -10.7799    6.6807    5.8567 C.ar    1  LIG1        0.0267
     43 N          -9.9229    6.3951    4.8179 N.ar    1  LIG1       -0.3548
     44 H          -9.3612    7.0586    4.3358 H       1  LIG1        0.1655
     45 H         -10.9260    7.8926    6.3038 H       1  LIG1        0.0827
     46 O         -11.1565    3.2137    5.4779 O.3     1  LIG1       -0.5031
     47 H         -10.3543    2.6865    5.4924 H       1  LIG1        0.2923
     48 N         -12.2370    5.3842    7.2056 N.pl3   1  LIG1       -0.3540
     49 H         -12.9274    6.1037    7.1310 H       1  LIG1        0.1425
     50 H         -12.6781    4.4899    7.1310 H       1  LIG1        0.1425
@<TRIPOS>BOND
     1    23    21    1
     2    22    21    1
     3    21    16    1
     4    25    24    1
     5    24    17    1
     6    11     9    1
     7    16    17   ar
     8    16    15   ar
     9    17    18   ar
    10     7     3    1
    11    15     5    1
    12    15    19   ar
    13    14    13    1
    14     5     4   ar
    15     5     6   ar
    16    13     4    1
    17     4     3   ar
    18     6     1   ar
    19     1     2   ar
    20     1     9    1
    21     3     2   ar
    22     2     8    1
    23     9    12    1
    24     9    10    1
    25    32    28    1
    26    18    19   ar
    27    18    27    1
    28    19    20    1
    29    38    35    1
    30    28    27   ar
    31    28    29   ar
    32    27    26   ar
    33    36    35    1
    34    35    34    1
    35    35    37    1
    36    34    29    1
    37    29    30   ar
    38    26    33    1
    39    26    31   ar
    40    30    31   ar
    41    30    39    1
    42    44    43    1
    43    39    43   ar
    44    39    40   ar
    45    43    42   ar
    46    40    46    1
    47    40    41   ar
    48    46    47    1
    49    42    41   ar
    50    42    45    1
    51    41    48    1
    52    50    48    1
    53    49    48    1
