@<TRIPOS>MOLECULE
mol_data/noopt/geoms/mol2/6if13di-12ii-6fi.out
 53 55 0 0 0
SMALL
GASTEIGER

@<TRIPOS>ATOM
      1 C          -4.5775   -2.0270    0.0001 C.ar    1  LIG1        0.0392
      2 C          -3.1706   -2.0270    0.0001 C.ar    1  LIG1       -0.0372
      3 C          -2.5039   -0.8004    0.0001 C.ar    1  LIG1       -0.0163
      4 C          -3.2580    0.3743   -0.0001 C.ar    1  LIG1        0.1442
      5 C          -4.6612    0.2715   -0.0003 C.ar    1  LIG1        0.1298
      6 N          -5.3207   -0.9034   -0.0001 N.ar    1  LIG1       -0.2467
      7 H          -1.4054   -0.7607   -0.0009 H       1  LIG1        0.0655
      8 H          -2.5135   -3.1487    0.0004 H       1  LIG1        0.0636
      9 C          -5.2433   -3.1440    0.0002 C.3     1  LIG1       -0.0223
     10 H          -4.6754   -3.8976    0.5047 H       1  LIG1        0.0292
     11 H          -5.4259   -3.4505   -1.0086 H       1  LIG1        0.0292
     12 H          -6.1763   -3.0029    0.5046 H       1  LIG1        0.0292
     13 O          -2.6846    1.5410   -0.0003 O.3     1  LIG1       -0.5046
     14 H          -3.3554    2.2278   -0.0003 H       1  LIG1        0.2922
     15 C          -5.4065    1.3366   -0.0004 C.ar    1  LIG1        0.0868
     16 C          -5.0647    2.6523    0.0158 C.ar    1  LIG1        0.0821
     17 C          -6.2798    3.4100    0.0080 C.ar    1  LIG1       -0.0071
     18 C          -7.3107    2.5241   -0.0144 C.ar    1  LIG1        0.0521
     19 N          -6.7805    1.2536   -0.0191 N.ar    1  LIG1       -0.3516
     20 H          -7.3063    0.4102   -0.0343 H       1  LIG1        0.1660
     21 N          -2.7901    3.5526    0.0542 N.1     1  LIG1       -0.1908
     22 C          -3.8561    3.1306    0.0362 C.1     1  LIG1        0.1016
     23 C          -6.3823    4.7062    0.0196 C.3     1  LIG1       -0.0365
     24 H          -7.2810    4.9884    0.5272 H       1  LIG1        0.0279
     25 H          -6.4112    5.0707   -0.9860 H       1  LIG1        0.0279
     26 H          -5.5391    5.1260    0.5271 H       1  LIG1        0.0279
     27 C          -8.5950    2.7246   -0.0290 C.2     1  LIG1        0.0112
     28 C          -9.4174    3.8321   -0.0400 C.2     1  LIG1       -0.0342
     29 C         -10.7785    3.3380   -0.0542 C.2     1  LIG1        0.0005
     30 C         -10.6975    1.9607   -0.0510 C.2     1  LIG1        0.1943
     31 O          -9.3616    1.5584   -0.0356 O.2     1  LIG1       -0.2868
     32 C          -9.0662    5.0841   -0.0382 C.3     1  LIG1       -0.0387
     33 H          -9.8113    5.6628    0.4668 H       1  LIG1        0.0278
     34 H          -8.9696    5.4289   -1.0465 H       1  LIG1        0.0278
     35 H          -8.1289    5.1909    0.4667 H       1  LIG1        0.0278
     36 C         -11.8513    4.0727   -0.0674 C.3     1  LIG1       -0.0358
     37 H         -12.6434    3.5563    0.4334 H       1  LIG1        0.0279
     38 H         -12.1372    4.2684   -1.0798 H       1  LIG1        0.0279
     39 H         -11.6561    4.9979    0.4334 H       1  LIG1        0.0279
     40 C         -11.1087   -0.3521   -0.0629 C.ar    1  LIG1        0.2234
     41 C         -11.5537    0.9825   -0.0588 C.ar    1  LIG1        0.0834
     42 C         -12.9282    1.2269   -0.0630 C.ar    1  LIG1       -0.0414
     43 C         -13.8040    0.1400   -0.0712 C.ar    1  LIG1       -0.0314
     44 C         -13.2626   -1.1586   -0.0750 C.ar    1  LIG1        0.0343
     45 N         -11.9394   -1.4126   -0.0709 N.ar    1  LIG1       -0.2206
     46 H         -13.3134    2.2565   -0.0610 H       1  LIG1        0.0629
     47 H         -14.0372   -2.2026   -0.0826 H       1  LIG1        0.0833
     48 O          -9.8387   -0.6303   -0.0592 O.3     1  LIG1       -0.4919
     49 H          -9.3321    0.1851   -0.0583 H       1  LIG1        0.2937
     50 C         -15.0925    0.3149   -0.0756 C.3     1  LIG1       -0.0383
     51 H         -15.5652   -0.5026    0.4277 H       1  LIG1        0.0278
     52 H         -15.4427    0.3624   -1.0856 H       1  LIG1        0.0278
     53 H         -15.3301    1.2288    0.4276 H       1  LIG1        0.0278
@<TRIPOS>BOND
     1    52    50    1
     2    38    36    1
     3    34    32    1
     4    11     9    1
     5    25    23    1
     6    47    44    1
     7    50    43    1
     8    50    53    1
     9    50    51    1
    10    44    43   ar
    11    44    45   ar
    12    43    42   ar
    13    45    40   ar
    14    36    29    1
    15    36    39    1
    16    36    37    1
    17    42    46    1
    18    42    41   ar
    19    40    48    1
    20    40    41   ar
    21    48    49    1
    22    41    30    1
    23    29    30    2
    24    29    28    1
    25    30    31    1
    26    28    32    1
    27    28    27    2
    28    32    35    1
    29    32    33    1
    30    20    19    1
    31    27    18    1
    32    19    18   ar
    33    19    15   ar
    34    18    17   ar
    35     7     3    1
    36    15     5    1
    37    15    16   ar
    38    14    13    1
    39    13     4    1
    40     5     6   ar
    41     5     4   ar
    42     6     1   ar
    43     4     3   ar
    44     1     2   ar
    45     1     9    1
    46     2     3   ar
    47     2     8    1
    48     9    12    1
    49     9    10    1
    50    17    16   ar
    51    17    23    1
    52    16    22    1
    53    23    26    1
    54    23    24    1
    55    22    21    3
