@<TRIPOS>MOLECULE
mol_data/noopt/geoms/mol2/6if4ih(100)4fl(170)6he(40).out
 58 61 0 0 0
SMALL
GASTEIGER

@<TRIPOS>ATOM
      1 C          -4.5775   -2.0270    0.0001 C.ar    1  LIG1        0.0392
      2 C          -3.1706   -2.0270    0.0001 C.ar    1  LIG1       -0.0372
      3 C          -2.5039   -0.8004    0.0001 C.ar    1  LIG1       -0.0164
      4 C          -3.2580    0.3743   -0.0001 C.ar    1  LIG1        0.1427
      5 C          -4.6612    0.2715   -0.0003 C.ar    1  LIG1        0.1128
      6 N          -5.3207   -0.9034   -0.0001 N.ar    1  LIG1       -0.2482
      7 H          -1.4054   -0.7607   -0.0009 H       1  LIG1        0.0655
      8 H          -2.5135   -3.1487    0.0004 H       1  LIG1        0.0636
      9 C          -5.2433   -3.1440    0.0002 C.3     1  LIG1       -0.0223
     10 H          -4.6754   -3.8976    0.5047 H       1  LIG1        0.0292
     11 H          -5.4259   -3.4505   -1.0086 H       1  LIG1        0.0292
     12 H          -6.1763   -3.0029    0.5046 H       1  LIG1        0.0292
     13 O          -2.6846    1.5410   -0.0003 O.3     1  LIG1       -0.5046
     14 H          -3.3554    2.2278   -0.0003 H       1  LIG1        0.2922
     15 C          -5.9838    1.7901    1.2033 C.ar    1  LIG1       -0.0405
     16 C          -6.7842    2.9476    1.1501 C.ar    1  LIG1       -0.0486
     17 C          -5.4065    1.3366   -0.0004 C.ar    1  LIG1        0.0086
     18 C          -7.0011    3.6255   -0.0474 C.ar    1  LIG1        0.0066
     19 H          -7.2395    3.3146    2.0673 H       1  LIG1        0.0627
     20 C          -5.6227    2.0130   -1.1961 C.ar    1  LIG1       -0.0309
     21 C          -6.4207    3.1614   -1.2284 C.ar    1  LIG1        0.0331
     22 H          -5.1665    1.6434   -2.1110 H       1  LIG1        0.0643
     23 C          -5.8180    1.2008    2.3505 C.3     1  LIG1       -0.0391
     24 H          -5.0521    1.7043    2.9026 H       1  LIG1        0.0278
     25 H          -5.5313    0.1824    2.1903 H       1  LIG1        0.0278
     26 H          -6.7340    1.2308    2.9026 H       1  LIG1        0.0278
     27 N          -6.6193    3.7895   -2.3492 N.pl3   1  LIG1       -0.3575
     28 H          -5.7692    3.8093   -2.8754 H       1  LIG1        0.1423
     29 H          -7.3261    3.3168   -2.8754 H       1  LIG1        0.1423
     30 C          -9.1360    4.5790    0.1445 C.ar    1  LIG1        0.1254
     31 C          -9.8989    5.7625    0.1199 C.ar    1  LIG1       -0.0083
     32 C          -7.7456    4.6911   -0.0601 C.ar    1  LIG1        0.0288
     33 C          -9.3056    7.0039   -0.0980 C.ar    1  LIG1        0.0306
     34 H         -10.9736    5.6987    0.2754 H       1  LIG1        0.0661
     35 C          -7.1528    5.9302   -0.2777 C.ar    1  LIG1       -0.0081
     36 C          -7.9276    7.0945   -0.2981 C.ar    1  LIG1        0.1287
     37 H          -6.0786    5.9904   -0.4330 H       1  LIG1        0.0661
     38 O          -9.7463    3.4501    0.3527 O.3     1  LIG1       -0.5061
     39 H          -9.1007    2.7415    0.4040 H       1  LIG1        0.2922
     40 O          -7.3679    8.2501   -0.5022 O.3     1  LIG1       -0.4945
     41 C          -5.9492    8.0867   -0.5772 C.3     1  LIG1        0.0788
     42 H          -5.4890    9.0379   -0.7452 H       1  LIG1        0.0660
     43 H          -5.5887    7.6734    0.3417 H       1  LIG1        0.0660
     44 H          -5.7083    7.4264   -1.3839 H       1  LIG1        0.0660
     45 C         -11.2040    8.1294   -0.9028 C.ar    1  LIG1        0.1241
     46 C         -10.0401    8.0764   -0.1142 C.ar    1  LIG1        0.0264
     47 C          -9.6974    9.1970    0.6447 C.ar    1  LIG1       -0.0338
     48 C         -10.5212   10.3226    0.5909 C.ar    1  LIG1        0.0435
     49 C         -11.6645   10.2795   -0.2281 C.ar    1  LIG1        0.0451
     50 N         -12.0101    9.2069   -0.9666 N.ar    1  LIG1       -0.2389
     51 H          -8.7948    9.1931    1.2721 H       1  LIG1        0.0637
     52 H         -12.4624   11.3024   -0.3113 H       1  LIG1        0.0843
     53 N         -11.5645    7.1114   -1.6265 N.pl3   1  LIG1       -0.3427
     54 H         -12.3390    7.3704   -2.2037 H       1  LIG1        0.1437
     55 H         -10.7997    6.8252   -2.2037 H       1  LIG1        0.1437
     56 C         -10.2454   11.3908    1.2786 C.1     1  LIG1       -0.0681
     57 C          -9.9906   12.3778    1.9140 C.1     1  LIG1       -0.1139
     58 H          -9.7636   13.2570    2.4800 H       1  LIG1        0.1232
@<TRIPOS>BOND
     1    29    27    1
     2    28    27    1
     3    27    21    1
     4    55    53    1
     5    54    53    1
     6    22    20    1
     7    53    45    1
     8    44    41    1
     9    21    20   ar
    10    21    18   ar
    11    20    17   ar
    12    11     9    1
    13    50    45   ar
    14    50    49   ar
    15    45    46   ar
    16    42    41    1
    17    41    40    1
    18    41    43    1
    19    40    36    1
    20    37    35    1
    21    52    49    1
    22    36    35   ar
    23    36    33   ar
    24    35    32   ar
    25    49    48   ar
    26    46    33    1
    27    46    47   ar
    28    33    31   ar
    29    32    18    1
    30    32    30   ar
    31    18    16   ar
    32     7     3    1
    33    17     5    1
    34    17    15   ar
    35    14    13    1
    36     5     4   ar
    37     5     6   ar
    38    13     4    1
    39     4     3   ar
    40     6     1   ar
    41     1     2   ar
    42     1     9    1
    43     3     2   ar
    44     2     8    1
    45     9    12    1
    46     9    10    1
    47    31    30   ar
    48    31    34    1
    49    30    38    1
    50    38    39    1
    51    48    47   ar
    52    48    56    1
    53    47    51    1
    54    16    15   ar
    55    16    19    1
    56    15    23    1
    57    56    57    3
    58    57    58    1
    59    25    23    1
    60    23    26    1
    61    23    24    1
