@<TRIPOS>MOLECULE
mol_data/noopt/geoms/mol2/6if4ai-6aa-4eh-.out
 51 54 0 0 0
SMALL
GASTEIGER

@<TRIPOS>ATOM
      1 C          -4.5775   -2.0270    0.0001 C.ar    1  LIG1        0.0392
      2 C          -3.1706   -2.0270    0.0001 C.ar    1  LIG1       -0.0372
      3 C          -2.5039   -0.8004    0.0001 C.ar    1  LIG1       -0.0164
      4 C          -3.2580    0.3743   -0.0001 C.ar    1  LIG1        0.1427
      5 C          -4.6612    0.2715   -0.0003 C.ar    1  LIG1        0.1125
      6 N          -5.3207   -0.9034   -0.0001 N.ar    1  LIG1       -0.2482
      7 H          -1.4054   -0.7607   -0.0009 H       1  LIG1        0.0655
      8 H          -2.5135   -3.1487    0.0004 H       1  LIG1        0.0636
      9 C          -5.2433   -3.1440    0.0002 C.3     1  LIG1       -0.0223
     10 H          -4.6754   -3.8976    0.5047 H       1  LIG1        0.0292
     11 H          -5.4259   -3.4505   -1.0086 H       1  LIG1        0.0292
     12 H          -6.1763   -3.0029    0.5046 H       1  LIG1        0.0292
     13 O          -2.6846    1.5410   -0.0003 O.3     1  LIG1       -0.5046
     14 H          -3.3554    2.2278   -0.0003 H       1  LIG1        0.2922
     15 C          -4.8078    2.6129    0.0216 C.ar    1  LIG1       -0.0519
     16 C          -5.6586    3.7351    0.0221 C.ar    1  LIG1       -0.0531
     17 C          -5.4065    1.3366   -0.0004 C.ar    1  LIG1        0.0042
     18 C          -7.0444    3.5952    0.0010 C.ar    1  LIG1       -0.0135
     19 H          -5.2175    4.7293    0.0391 H       1  LIG1        0.0624
     20 C          -6.7900    1.1963   -0.0215 C.ar    1  LIG1       -0.0490
     21 C          -7.6183    2.3234   -0.0211 C.ar    1  LIG1       -0.0421
     22 H          -7.2275    0.2014   -0.0382 H       1  LIG1        0.0627
     23 H          -3.5225    2.8070    0.0417 H       1  LIG1        0.0624
     24 C          -8.9112    2.1861   -0.0407 C.3     1  LIG1       -0.0391
     25 H          -9.1812    1.2789    0.4583 H       1  LIG1        0.0278
     26 H          -9.2507    2.1500   -1.0548 H       1  LIG1        0.0278
     27 H          -9.3656    3.0165    0.4582 H       1  LIG1        0.0278
     28 C          -9.2011    4.5262   -0.0185 C.ar    1  LIG1        0.0360
     29 C          -7.8001    4.6530    0.0019 C.ar    1  LIG1        0.0005
     30 C          -7.2469    5.9347    0.0235 C.ar    1  LIG1       -0.0506
     31 C          -8.1039    7.0365    0.0237 C.ar    1  LIG1       -0.0351
     32 C          -9.4920    6.8077    0.0021 C.ar    1  LIG1        0.0722
     33 N         -10.0426    5.5782   -0.0187 N.ar    1  LIG1       -0.2543
     34 H          -6.1566    6.0732    0.0389 H       1  LIG1        0.0625
     35 H          -9.7631    3.3541   -0.0389 H       1  LIG1        0.0836
     36 H          -7.6382    8.2501    0.0431 H       1  LIG1        0.0639
     37 C          -9.8492    9.1263    0.0232 C.ar    1  LIG1        0.0340
     38 C         -10.7978   10.1672    0.0230 C.ar    1  LIG1       -0.0440
     39 C         -10.3303    7.8012    0.0014 C.ar    1  LIG1        0.0174
     40 C         -12.1653    9.9028    0.0016 C.ar    1  LIG1       -0.0399
     41 H         -10.4482   11.1971    0.0398 H       1  LIG1        0.0630
     42 C         -11.6955    7.5367   -0.0200 C.ar    1  LIG1       -0.0307
     43 C         -12.6221    8.5844   -0.0201 C.ar    1  LIG1        0.0252
     44 H         -12.0415    6.5063   -0.0364 H       1  LIG1        0.0643
     45 H         -13.0134   10.8882    0.0020 H       1  LIG1        0.0636
     46 C          -8.5867    9.4356    0.0435 C.1     1  LIG1       -0.0690
     47 C          -7.4202    9.7214    0.0622 C.1     1  LIG1       -0.1139
     48 H          -6.3810    9.9759    0.0789 H       1  LIG1        0.1232
     49 N         -13.8971    8.3311   -0.0400 N.pl3   1  LIG1       -0.3579
     50 H         -14.3760    9.0684   -0.5165 H       1  LIG1        0.1423
     51 H         -14.0578    7.4668   -0.5165 H       1  LIG1        0.1423
@<TRIPOS>BOND
     1    26    24    1
     2    11     9    1
     3    51    49    1
     4    50    49    1
     5    24    21    1
     6    24    27    1
     7    24    25    1
     8    49    43    1
     9    35    28    1
    10    22    20    1
    11    44    42    1
    12    20    21   ar
    13    20    17   ar
    14    21    18   ar
    15    43    42   ar
    16    43    40   ar
    17    42    39   ar
    18    33    28   ar
    19    33    32   ar
    20    28    29   ar
    21     7     3    1
    22    17     5    1
    23    17    15   ar
    24    14    13    1
    25    13     4    1
    26     5     4   ar
    27     5     6   ar
    28     4     3   ar
    29     6     1   ar
    30     1     2   ar
    31     1     9    1
    32     2     3   ar
    33     2     8    1
    34     9    12    1
    35     9    10    1
    36    18    29    1
    37    18    16   ar
    38    39    32    1
    39    39    37   ar
    40    40    45    1
    41    40    38   ar
    42    29    30   ar
    43    32    31   ar
    44    15    16   ar
    45    15    23    1
    46    16    19    1
    47    38    37   ar
    48    38    41    1
    49    37    46    1
    50    30    31   ar
    51    30    34    1
    52    31    36    1
    53    46    47    3
    54    47    48    1
