@<TRIPOS>MOLECULE
mol_data/noopt/geoms/mol2/6if6if-6if.out
 41 40 0 0 0
SMALL
GASTEIGER

@<TRIPOS>ATOM
      1 C          -4.5775   -2.0270    0.0001 C.ar    1  LIG1        0.0390
      2 C          -3.1706   -2.0270    0.0001 C.ar    1  LIG1       -0.0400
      3 C          -2.5039   -0.8004    0.0001 C.ar    1  LIG1       -0.0502
      4 C          -3.2580    0.3743   -0.0001 C.ar    1  LIG1        0.0102
      5 C          -4.6612    0.2715   -0.0003 C.ar    1  LIG1        0.0807
      6 N          -5.3207   -0.9034   -0.0001 N.ar    1  LIG1       -0.2512
      7 H          -1.4054   -0.7607   -0.0009 H       1  LIG1        0.0625
      8 H          -2.5135   -3.1487    0.0004 H       1  LIG1        0.0636
      9 C          -5.2433   -3.1440    0.0002 C.3     1  LIG1       -0.0223
     10 H          -4.6754   -3.8976    0.5047 H       1  LIG1        0.0292
     11 H          -5.4259   -3.4505   -1.0086 H       1  LIG1        0.0292
     12 H          -6.1763   -3.0029    0.5046 H       1  LIG1        0.0292
     13 O          -2.6846    1.5410   -0.0003 O.3     2  HOH2       -0.2528
     14 H          -3.3554    2.2278   -0.0003 H       3  UNK3        0.0000
     15 C          -4.8196    2.6153   -0.0003 C.ar    1  LIG1        0.0515
     16 C          -5.4065    1.3366   -0.0004 C.ar    1  LIG1        0.0229
     17 C          -6.7994    1.2424   -0.0003 C.ar    1  LIG1       -0.0410
     18 C          -7.5524    2.4178   -0.0003 C.ar    1  LIG1        0.0109
     19 C          -6.8736    3.6502   -0.0004 C.ar    1  LIG1        0.0809
     20 N          -5.5307    3.7594   -0.0003 N.ar    1  LIG1       -0.2503
     21 H          -7.2937    0.2606   -0.0014 H       1  LIG1        0.0631
     22 C          -3.5268    2.7544   -0.0003 C.3     1  LIG1       -0.0043
     23 H          -3.2656    3.6611    0.5042 H       1  LIG1        0.0332
     24 H          -3.1721    2.7926   -1.0091 H       1  LIG1        0.0332
     25 H          -3.0787    1.9238    0.5041 H       0  HOH0        0.2528
     26 O          -8.8520    2.3834   -0.0004 O.3     4  HOH4       -0.4105
     27 H          -9.1484    1.4703   -0.0004 H       0  HOH0        0.2052
     28 C          -8.9376    4.7719   -0.0001 C.ar    1  LIG1        0.0510
     29 C          -7.5307    4.7719   -0.0003 C.ar    1  LIG1        0.0257
     30 C          -6.8640    5.9985   -0.0001 C.ar    1  LIG1       -0.0078
     31 C          -7.6181    7.1732    0.0002 C.ar    1  LIG1        0.1355
     32 C          -9.0213    7.0704    0.0002 C.ar    1  LIG1        0.0693
     33 N          -9.6808    5.8955    0.0002 N.ar    1  LIG1       -0.2556
     34 H          -5.7655    6.0382   -0.0012 H       1  LIG1        0.0662
     35 H          -9.7666    8.1355    0.0005 H       1  LIG1        0.0867
     36 C          -9.6034    3.6549   -0.0002 C.3     1  LIG1       -0.0043
     37 H          -9.0356    2.9012    0.5043 H       0  HOH0        0.2052
     38 H          -9.7859    3.3486   -1.0090 H       1  LIG1        0.0332
     39 H         -10.5365    3.7959    0.5042 H       1  LIG1        0.0332
     40 O          -7.0447    8.3399    0.0002 O.3     1  LIG1       -0.5052
     41 H          -7.7156    9.0266    0.0002 H       1  LIG1        0.2922
@<TRIPOS>BOND
     1    24    22    1
     2    38    36    1
     3    11     9    1
     4    21    17    1
     5    34    30    1
     6     7     3    1
     7    27    26    1
     8    16    17   ar
     9    16     5    1
    10    16    15   ar
    11    26    37    1
    12    19    18   ar
    13    19    29    1
    14    19    20   ar
    15    17    18   ar
    16    13    25    1
    17     5     6   ar
    18     5     4   ar
    19    29    28   ar
    20    29    30   ar
    21    15    20   ar
    22    15    22    1
    23    22    23    1
    24    36    28    1
    25    36    39    1
    26     6     1   ar
    27     4     3   ar
    28    28    33   ar
    29    30    31   ar
    30     1     2   ar
    31     1     9    1
    32     3     2   ar
    33     2     8    1
    34    33    32   ar
    35    32    31   ar
    36    32    35    1
    37    31    40    1
    38    40    41    1
    39     9    12    1
    40     9    10    1
