@<TRIPOS>MOLECULE
mol_data/noopt/geoms/mol2/6if6if-.out
 28 27 0 0 0
SMALL
GASTEIGER

@<TRIPOS>ATOM
      1 C          -4.5775   -2.0270    0.0001 C.ar    1  LIG1        0.0390
      2 C          -3.1706   -2.0270    0.0001 C.ar    1  LIG1       -0.0400
      3 C          -2.5039   -0.8004    0.0001 C.ar    1  LIG1       -0.0502
      4 C          -3.2580    0.3743   -0.0001 C.ar    1  LIG1        0.0102
      5 C          -4.6612    0.2715   -0.0003 C.ar    1  LIG1        0.0808
      6 N          -5.3207   -0.9034   -0.0001 N.ar    1  LIG1       -0.2512
      7 H          -1.4054   -0.7607   -0.0009 H       1  LIG1        0.0625
      8 H          -2.5135   -3.1487    0.0004 H       1  LIG1        0.0636
      9 C          -5.2433   -3.1440    0.0002 C.3     1  LIG1       -0.0223
     10 H          -4.6754   -3.8976    0.5047 H       1  LIG1        0.0292
     11 H          -5.4259   -3.4505   -1.0086 H       1  LIG1        0.0292
     12 H          -6.1763   -3.0029    0.5046 H       1  LIG1        0.0292
     13 O          -2.6846    1.5410   -0.0003 O.3     2  HOH2       -0.2528
     14 H          -3.3554    2.2278   -0.0003 H       3  UNK3        0.0000
     15 C          -4.8196    2.6153   -0.0003 C.ar    1  LIG1        0.0510
     16 C          -5.4065    1.3366   -0.0004 C.ar    1  LIG1        0.0257
     17 C          -6.7994    1.2424   -0.0003 C.ar    1  LIG1       -0.0078
     18 C          -7.5524    2.4178   -0.0003 C.ar    1  LIG1        0.1355
     19 C          -6.8736    3.6502   -0.0004 C.ar    1  LIG1        0.0693
     20 N          -5.5307    3.7594   -0.0003 N.ar    1  LIG1       -0.2556
     21 H          -7.2937    0.2606   -0.0014 H       1  LIG1        0.0662
     22 H          -7.5307    4.7719   -0.0003 H       1  LIG1        0.0867
     23 C          -3.5268    2.7544   -0.0003 C.3     1  LIG1       -0.0043
     24 H          -3.2656    3.6611    0.5042 H       1  LIG1        0.0332
     25 H          -3.1721    2.7926   -1.0091 H       1  LIG1        0.0332
     26 H          -3.0787    1.9238    0.5041 H       0  HOH0        0.2528
     27 O          -8.8520    2.3834   -0.0004 O.3     1  LIG1       -0.5052
     28 H          -9.1484    1.4703   -0.0004 H       1  LIG1        0.2922
@<TRIPOS>BOND
     1    25    23    1
     2    11     9    1
     3    21    17    1
     4     7     3    1
     5    28    27    1
     6    16    17   ar
     7    16     5    1
     8    16    15   ar
     9    27    18    1
    10    19    18   ar
    11    19    22    1
    12    19    20   ar
    13    17    18   ar
    14     5     6   ar
    15     5     4   ar
    16    13    26    1
    17    15    20   ar
    18    15    23    1
    19    23    24    1
    20     6     1   ar
    21     4     3   ar
    22     1     2   ar
    23     1     9    1
    24     3     2   ar
    25     2     8    1
    26     9    12    1
    27     9    10    1
