@<TRIPOS>MOLECULE
mol_data/noopt/geoms/mol2/6if6if6if6if-.out
 54 55 0 0 0
SMALL
GASTEIGER

@<TRIPOS>ATOM
      1 C          -4.5775   -2.0270    0.0001 C.ar    1  LIG1        0.0392
      2 C          -3.1706   -2.0270    0.0001 C.ar    1  LIG1       -0.0372
      3 C          -2.5039   -0.8004    0.0001 C.ar    1  LIG1       -0.0164
      4 C          -3.2580    0.3743   -0.0001 C.ar    1  LIG1        0.1428
      5 C          -4.6612    0.2715   -0.0003 C.ar    1  LIG1        0.1143
      6 N          -5.3207   -0.9034   -0.0001 N.ar    1  LIG1       -0.2482
      7 H          -1.4054   -0.7607   -0.0009 H       1  LIG1        0.0655
      8 H          -2.5135   -3.1487    0.0004 H       1  LIG1        0.0636
      9 C          -5.2433   -3.1440    0.0002 C.3     1  LIG1       -0.0223
     10 H          -4.6754   -3.8976    0.5047 H       1  LIG1        0.0292
     11 H          -5.4259   -3.4505   -1.0086 H       1  LIG1        0.0292
     12 H          -6.1763   -3.0029    0.5046 H       1  LIG1        0.0292
     13 O          -2.6846    1.5410   -0.0003 O.3     1  LIG1       -0.5046
     14 H          -3.3554    2.2278   -0.0003 H       1  LIG1        0.2922
     15 C          -6.8088    1.2233   -0.0003 C.ar    1  LIG1        0.0484
     16 C          -5.4065    1.3366   -0.0004 C.ar    1  LIG1        0.0284
     17 C          -4.8408    2.6129   -0.0003 C.ar    1  LIG1       -0.0070
     18 C          -5.6871    3.7231   -0.0003 C.ar    1  LIG1        0.1434
     19 C          -7.0774    3.5076   -0.0004 C.ar    1  LIG1        0.1143
     20 N          -7.6401    2.2834   -0.0003 N.ar    1  LIG1       -0.2475
     21 H          -3.7491    2.7410   -0.0014 H       1  LIG1        0.0662
     22 C          -7.3825    0.0563   -0.0003 C.3     1  LIG1       -0.0217
     23 H          -6.7558   -0.6491    0.5041 H       1  LIG1        0.0293
     24 H          -7.5398   -0.2638   -1.0091 H       1  LIG1        0.0293
     25 H          -8.3239    0.1217    0.5041 H       1  LIG1        0.0293
     26 O          -5.2095    4.9322   -0.0004 O.3     1  LIG1       -0.5046
     27 H          -5.9335    5.5627   -0.0004 H       1  LIG1        0.2922
     28 C          -9.2948    4.2833   -0.0001 C.ar    1  LIG1        0.0482
     29 C          -7.9061    4.5092   -0.0003 C.ar    1  LIG1        0.0255
     30 C          -7.4450    5.8270   -0.0001 C.ar    1  LIG1       -0.0409
     31 C          -8.3780    6.8653    0.0002 C.ar    1  LIG1        0.0109
     32 C          -9.7465    6.5385    0.0002 C.ar    1  LIG1        0.0809
     33 N         -10.2087    5.2730    0.0002 N.ar    1  LIG1       -0.2506
     34 H          -6.3672    6.0425   -0.0012 H       1  LIG1        0.0631
     35 C          -9.7725    3.0739   -0.0002 C.3     1  LIG1       -0.0217
     36 H          -9.0910    2.4212    0.5042 H       1  LIG1        0.0293
     37 H          -9.9035    2.7422   -1.0090 H       1  LIG1        0.0293
     38 H         -10.7161    3.0632    0.5042 H       1  LIG1        0.0293
     39 O          -7.9993    8.1090    0.0002 O.3     2  HOH2       -0.2528
     40 H          -8.7717    8.6791    0.0002 H       3  UNK3        0.0000
     41 C         -10.2792    8.8264    0.0008 C.ar    1  LIG1        0.0510
     42 C         -10.6531    7.4702    0.0005 C.ar    1  LIG1        0.0257
     43 C         -12.0128    7.1535    0.0008 C.ar    1  LIG1       -0.0078
     44 C         -12.9448    8.1927    0.0012 C.ar    1  LIG1        0.1355
     45 C         -12.4727    9.5181    0.0013 C.ar    1  LIG1        0.0693
     46 N         -11.1648    9.8416    0.0012 N.ar    1  LIG1       -0.2556
     47 H         -12.3431    6.1051   -0.0005 H       1  LIG1        0.0662
     48 H         -13.3014   10.5197    0.0018 H       1  LIG1        0.0867
     49 C          -9.0254    9.1713    0.0006 C.3     1  LIG1       -0.0043
     50 H          -8.9132   10.1083    0.5050 H       1  LIG1        0.0332
     51 H          -8.6817    9.2660   -1.0083 H       1  LIG1        0.0332
     52 H          -8.4498    8.4236    0.5049 H       0  HOH0        0.2528
     53 O         -14.2220    7.9501    0.0013 O.3     1  LIG1       -0.5052
     54 H         -14.3679    7.0012    0.0014 H       1  LIG1        0.2922
@<TRIPOS>BOND
     1    24    22    1
     2    37    35    1
     3    11     9    1
     4    51    49    1
     5    21    17    1
     6    34    30    1
     7     7     3    1
     8    47    43    1
     9    16     5    1
    10    16    15   ar
    11    16    17   ar
    12    27    26    1
    13    19    20   ar
    14    19    29    1
    15    19    18   ar
    16    26    18    1
    17    14    13    1
    18    13     4    1
    19     5     6   ar
    20     5     4   ar
    21    15    22    1
    22    15    20   ar
    23    17    18   ar
    24    22    25    1
    25    22    23    1
    26    29    28   ar
    27    29    30   ar
    28    35    28    1
    29    35    38    1
    30    35    36    1
    31     6     1   ar
    32     4     3   ar
    33    28    33   ar
    34    30    31   ar
    35     1     2   ar
    36     1     9    1
    37     2     3   ar
    38     2     8    1
    39    33    32   ar
    40    32    31   ar
    41    32    42    1
    42    39    52    1
    43     9    12    1
    44     9    10    1
    45    42    43   ar
    46    42    41   ar
    47    49    41    1
    48    49    50    1
    49    43    44   ar
    50    41    46   ar
    51    44    45   ar
    52    44    53    1
    53    46    45   ar
    54    45    48    1
    55    53    54    1
