@<TRIPOS>MOLECULE
mol_data/noopt/geoms/mol2/6if6if6if-6if.out
 54 54 0 0 0
SMALL
GASTEIGER

@<TRIPOS>ATOM
      1 C          -4.5775   -2.0270    0.0001 C.ar    1  LIG1        0.0392
      2 C          -3.1706   -2.0270    0.0001 C.ar    1  LIG1       -0.0372
      3 C          -2.5039   -0.8004    0.0001 C.ar    1  LIG1       -0.0164
      4 C          -3.2580    0.3743   -0.0001 C.ar    1  LIG1        0.1428
      5 C          -4.6612    0.2715   -0.0003 C.ar    1  LIG1        0.1142
      6 N          -5.3207   -0.9034   -0.0001 N.ar    1  LIG1       -0.2482
      7 H          -1.4054   -0.7607   -0.0009 H       1  LIG1        0.0655
      8 H          -2.5135   -3.1487    0.0004 H       1  LIG1        0.0636
      9 C          -5.2433   -3.1440    0.0002 C.3     1  LIG1       -0.0223
     10 H          -4.6754   -3.8976    0.5047 H       1  LIG1        0.0292
     11 H          -5.4259   -3.4505   -1.0086 H       1  LIG1        0.0292
     12 H          -6.1763   -3.0029    0.5046 H       1  LIG1        0.0292
     13 O          -2.6846    1.5410   -0.0003 O.3     1  LIG1       -0.5046
     14 H          -3.3554    2.2278   -0.0003 H       1  LIG1        0.2922
     15 C          -6.8088    1.2233   -0.0003 C.ar    1  LIG1        0.0482
     16 C          -5.4065    1.3366   -0.0004 C.ar    1  LIG1        0.0255
     17 C          -4.8408    2.6129   -0.0003 C.ar    1  LIG1       -0.0409
     18 C          -5.6871    3.7231   -0.0003 C.ar    1  LIG1        0.0109
     19 C          -7.0774    3.5076   -0.0004 C.ar    1  LIG1        0.0808
     20 N          -7.6401    2.2834   -0.0003 N.ar    1  LIG1       -0.2506
     21 H          -3.7491    2.7410   -0.0014 H       1  LIG1        0.0631
     22 C          -7.3825    0.0563   -0.0003 C.3     1  LIG1       -0.0217
     23 H          -6.7558   -0.6491    0.5041 H       1  LIG1        0.0293
     24 H          -7.5398   -0.2638   -1.0091 H       1  LIG1        0.0293
     25 H          -8.3239    0.1217    0.5041 H       1  LIG1        0.0293
     26 O          -5.2095    4.9322   -0.0004 O.3     2  HOH2       -0.2528
     27 H          -5.9335    5.5627   -0.0004 H       3  UNK3        0.0000
     28 C          -7.4241    5.8310   -0.0000 C.ar    1  LIG1        0.0515
     29 C          -7.9061    4.5092   -0.0003 C.ar    1  LIG1        0.0229
     30 C          -9.2869    4.3031   -0.0001 C.ar    1  LIG1       -0.0410
     31 C         -10.1321    5.4140    0.0002 C.ar    1  LIG1        0.0109
     32 C          -9.5548    6.6971    0.0002 C.ar    1  LIG1        0.0809
     33 N          -8.2251    6.9141    0.0002 N.ar    1  LIG1       -0.2503
     34 H          -9.7005    3.2847   -0.0012 H       1  LIG1        0.0631
     35 C          -6.1467    6.0738   -0.0001 C.3     1  LIG1       -0.0043
     36 H          -5.9593    6.9986    0.5043 H       1  LIG1        0.0332
     37 H          -5.7963    6.1404   -1.0090 H       1  LIG1        0.0332
     38 H          -5.6331    5.2820    0.5042 H       0  HOH0        0.2528
     39 O         -11.4247    5.2750    0.0002 O.3     4  HOH4       -0.4105
     40 H         -11.6466    4.3410    0.0002 H       0  HOH0        0.2052
     41 C         -11.7025    7.6489    0.0008 C.ar    1  LIG1        0.0510
     42 C         -10.3001    7.7622    0.0005 C.ar    1  LIG1        0.0257
     43 C          -9.7344    9.0385    0.0008 C.ar    1  LIG1       -0.0078
     44 C         -10.5807   10.1487    0.0012 C.ar    1  LIG1        0.1355
     45 C         -11.9710    9.9332    0.0013 C.ar    1  LIG1        0.0693
     46 N         -12.5338    8.7090    0.0012 N.ar    1  LIG1       -0.2556
     47 H          -8.6427    9.1666   -0.0004 H       1  LIG1        0.0662
     48 H         -12.7997   10.9348    0.0018 H       1  LIG1        0.0867
     49 C         -12.2761    6.4819    0.0006 C.3     1  LIG1       -0.0043
     50 H         -11.6494    5.7764    0.5050 H       0  HOH0        0.2052
     51 H         -12.4333    6.1619   -1.0083 H       1  LIG1        0.0332
     52 H         -13.2175    6.5472    0.5049 H       1  LIG1        0.0332
     53 O         -10.1031   11.3578    0.0014 O.3     1  LIG1       -0.5052
     54 H         -10.8271   11.9883    0.0014 H       1  LIG1        0.2922
@<TRIPOS>BOND
     1    24    22    1
     2    37    35    1
     3    11     9    1
     4    51    49    1
     5    21    17    1
     6    34    30    1
     7     7     3    1
     8    47    43    1
     9    16     5    1
    10    16    15   ar
    11    16    17   ar
    12    19    20   ar
    13    19    29    1
    14    19    18   ar
    15    26    38    1
    16    14    13    1
    17    13     4    1
    18     5     6   ar
    19     5     4   ar
    20    15    22    1
    21    15    20   ar
    22    17    18   ar
    23    22    25    1
    24    22    23    1
    25    29    30   ar
    26    29    28   ar
    27    35    28    1
    28    35    36    1
    29     6     1   ar
    30     4     3   ar
    31    30    31   ar
    32    28    33   ar
    33     1     2   ar
    34     1     9    1
    35     2     3   ar
    36     2     8    1
    37    31    32   ar
    38    39    40    1
    39    39    50    1
    40    32    33   ar
    41    32    42    1
    42     9    12    1
    43     9    10    1
    44    42    41   ar
    45    42    43   ar
    46    49    41    1
    47    49    52    1
    48    41    46   ar
    49    43    44   ar
    50    46    45   ar
    51    44    45   ar
    52    44    53    1
    53    45    48    1
    54    53    54    1
