@<TRIPOS>MOLECULE
mol_data/noopt/geoms/mol2/6if6if-6if-6if-.out
 54 55 0 0 0
SMALL
GASTEIGER

@<TRIPOS>ATOM
      1 C          -4.5775   -2.0270    0.0001 C.ar    1  LIG1        0.0390
      2 C          -3.1706   -2.0270    0.0001 C.ar    1  LIG1       -0.0400
      3 C          -2.5039   -0.8004    0.0001 C.ar    1  LIG1       -0.0502
      4 C          -3.2580    0.3743   -0.0001 C.ar    1  LIG1        0.0102
      5 C          -4.6612    0.2715   -0.0003 C.ar    1  LIG1        0.0808
      6 N          -5.3207   -0.9034   -0.0001 N.ar    1  LIG1       -0.2512
      7 H          -1.4054   -0.7607   -0.0009 H       1  LIG1        0.0625
      8 H          -2.5135   -3.1487    0.0004 H       1  LIG1        0.0636
      9 C          -5.2433   -3.1440    0.0002 C.3     1  LIG1       -0.0223
     10 H          -4.6754   -3.8976    0.5047 H       1  LIG1        0.0292
     11 H          -5.4259   -3.4505   -1.0086 H       1  LIG1        0.0292
     12 H          -6.1763   -3.0029    0.5046 H       1  LIG1        0.0292
     13 O          -2.6846    1.5410   -0.0003 O.3     2  HOH2       -0.2528
     14 H          -3.3554    2.2278   -0.0003 H       3  UNK3        0.0000
     15 C          -4.8196    2.6153   -0.0003 C.ar    1  LIG1        0.0517
     16 C          -5.4065    1.3366   -0.0004 C.ar    1  LIG1        0.0257
     17 C          -6.7994    1.2424   -0.0003 C.ar    1  LIG1       -0.0071
     18 C          -7.5524    2.4178   -0.0003 C.ar    1  LIG1        0.1434
     19 C          -6.8736    3.6502   -0.0004 C.ar    1  LIG1        0.1144
     20 N          -5.5307    3.7594   -0.0003 N.ar    1  LIG1       -0.2472
     21 H          -7.2937    0.2606   -0.0014 H       1  LIG1        0.0662
     22 C          -3.5268    2.7544   -0.0003 C.3     1  LIG1       -0.0043
     23 H          -3.2656    3.6611    0.5042 H       1  LIG1        0.0332
     24 H          -3.1721    2.7926   -1.0091 H       1  LIG1        0.0332
     25 H          -3.0787    1.9238    0.5041 H       0  HOH0        0.2528
     26 O          -8.8520    2.3834   -0.0004 O.3     1  LIG1       -0.5046
     27 H          -9.1484    1.4703   -0.0004 H       1  LIG1        0.2922
     28 C          -6.8427    5.9991   -0.0000 C.ar    1  LIG1        0.0484
     29 C          -7.5307    4.7719   -0.0003 C.ar    1  LIG1        0.0284
     30 C          -8.9267    4.7902   -0.0001 C.ar    1  LIG1       -0.0070
     31 C          -9.5826    6.0224    0.0002 C.ar    1  LIG1        0.1434
     32 C          -8.8067    7.1961    0.0002 C.ar    1  LIG1        0.1144
     33 N          -7.4594    7.1968    0.0002 N.ar    1  LIG1       -0.2475
     34 H          -9.4985    3.8514   -0.0012 H       1  LIG1        0.0662
     35 C          -5.5429    6.0336   -0.0001 C.3     1  LIG1       -0.0217
     36 H          -5.2095    6.9164    0.5043 H       1  LIG1        0.0293
     37 H          -5.1864    6.0431   -1.0090 H       1  LIG1        0.0293
     38 H          -5.1632    5.1697    0.5042 H       1  LIG1        0.0293
     39 O         -10.8807    6.0928    0.0002 O.3     1  LIG1       -0.5046
     40 H         -11.2497    5.2065    0.0002 H       1  LIG1        0.2922
     41 C          -8.5867    9.5349    0.0008 C.ar    1  LIG1        0.0477
     42 C          -9.3714    8.3671    0.0005 C.ar    1  LIG1        0.0284
     43 C         -10.7613    8.4977    0.0008 C.ar    1  LIG1       -0.0077
     44 C         -11.3158    9.7788    0.0012 C.ar    1  LIG1        0.1355
     45 C         -10.4479   10.8862    0.0013 C.ar    1  LIG1        0.0693
     46 N          -9.1049   10.7784    0.0012 N.ar    1  LIG1       -0.2559
     47 H         -11.4069    7.6081   -0.0005 H       1  LIG1        0.0662
     48 H         -10.9164   12.0988    0.0018 H       1  LIG1        0.0867
     49 C          -7.2883    9.4646    0.0006 C.3     1  LIG1       -0.0217
     50 H          -6.8849   10.3176    0.5050 H       1  LIG1        0.0293
     51 H          -6.9323    9.4454   -1.0083 H       1  LIG1        0.0293
     52 H          -6.9794    8.5729    0.5049 H       1  LIG1        0.0293
     53 O         -12.6041    9.9535    0.0014 O.3     1  LIG1       -0.5052
     54 H         -13.0432    9.0998    0.0014 H       1  LIG1        0.2922
@<TRIPOS>BOND
     1    24    22    1
     2    37    35    1
     3    11     9    1
     4    51    49    1
     5    21    17    1
     6    34    30    1
     7     7     3    1
     8    47    43    1
     9    27    26    1
    10    16    17   ar
    11    16     5    1
    12    16    15   ar
    13    26    18    1
    14    19    18   ar
    15    19    29    1
    16    19    20   ar
    17    17    18   ar
    18    13    25    1
    19     5     6   ar
    20     5     4   ar
    21    29    30   ar
    22    29    28   ar
    23    15    20   ar
    24    15    22    1
    25    22    23    1
    26    35    28    1
    27    35    38    1
    28    35    36    1
    29     6     1   ar
    30     4     3   ar
    31    30    31   ar
    32    28    33   ar
    33     1     2   ar
    34     1     9    1
    35     2     3   ar
    36     2     8    1
    37    31    32   ar
    38    31    39    1
    39    32    33   ar
    40    32    42    1
    41    39    40    1
    42     9    12    1
    43     9    10    1
    44    42    43   ar
    45    42    41   ar
    46    49    41    1
    47    49    52    1
    48    49    50    1
    49    43    44   ar
    50    41    46   ar
    51    44    45   ar
    52    44    53    1
    53    46    45   ar
    54    45    48    1
    55    53    54    1
