@<TRIPOS>MOLECULE
mol_data/noopt/geoms/mol2/6if6if-4if6if.out
 55 55 0 0 0
SMALL
GASTEIGER

@<TRIPOS>ATOM
      1 C          -4.5775   -2.0270    0.0001 C.ar    1  LIG1        0.0390
      2 C          -3.1706   -2.0270    0.0001 C.ar    1  LIG1       -0.0400
      3 C          -2.5039   -0.8004    0.0001 C.ar    1  LIG1       -0.0502
      4 C          -3.2580    0.3743   -0.0001 C.ar    1  LIG1        0.0102
      5 C          -4.6612    0.2715   -0.0003 C.ar    1  LIG1        0.0808
      6 N          -5.3207   -0.9034   -0.0001 N.ar    1  LIG1       -0.2512
      7 H          -1.4054   -0.7607   -0.0009 H       1  LIG1        0.0625
      8 H          -2.5135   -3.1487    0.0004 H       1  LIG1        0.0636
      9 C          -5.2433   -3.1440    0.0002 C.3     1  LIG1       -0.0223
     10 H          -4.6754   -3.8976    0.5047 H       1  LIG1        0.0292
     11 H          -5.4259   -3.4505   -1.0086 H       1  LIG1        0.0292
     12 H          -6.1763   -3.0029    0.5046 H       1  LIG1        0.0292
     13 O          -2.6846    1.5410   -0.0003 O.3     2  HOH2       -0.2528
     14 H          -3.3554    2.2278   -0.0003 H       3  UNK3        0.0000
     15 C          -4.8196    2.6153   -0.0003 C.ar    1  LIG1        0.0517
     16 C          -5.4065    1.3366   -0.0004 C.ar    1  LIG1        0.0257
     17 C          -6.7994    1.2424   -0.0003 C.ar    1  LIG1       -0.0071
     18 C          -7.5524    2.4178   -0.0003 C.ar    1  LIG1        0.1434
     19 C          -6.8736    3.6502   -0.0004 C.ar    1  LIG1        0.1128
     20 N          -5.5307    3.7594   -0.0003 N.ar    1  LIG1       -0.2473
     21 H          -7.2937    0.2606   -0.0014 H       1  LIG1        0.0662
     22 C          -3.5268    2.7544   -0.0003 C.3     1  LIG1       -0.0043
     23 H          -3.2656    3.6611    0.5042 H       1  LIG1        0.0332
     24 H          -3.1721    2.7926   -1.0091 H       1  LIG1        0.0332
     25 H          -3.0787    1.9238    0.5041 H       0  HOH0        0.2528
     26 O          -8.8520    2.3834   -0.0004 O.3     1  LIG1       -0.5046
     27 H          -9.1484    1.4703   -0.0004 H       1  LIG1        0.2922
     28 C          -6.8310    5.9958    0.0005 C.ar    1  LIG1       -0.0406
     29 C          -7.5886    7.1830    0.0022 C.ar    1  LIG1       -0.0498
     30 C          -7.5307    4.7718   -0.0003 C.ar    1  LIG1        0.0074
     31 C          -8.9814    7.1551    0.0023 C.ar    1  LIG1       -0.0080
     32 H          -7.0688    8.1385    0.0030 H       1  LIG1        0.0627
     33 C          -8.9211    4.7434   -0.0001 C.ar    1  LIG1       -0.0439
     34 C          -9.6560    5.9336    0.0011 C.ar    1  LIG1       -0.0089
     35 H          -9.4376    3.7869   -0.0006 H       1  LIG1        0.0630
     36 C          -5.5338    6.0859    0.0002 C.3     1  LIG1       -0.0391
     37 H          -5.2384    6.9822    0.5045 H       1  LIG1        0.0278
     38 H          -5.1783    6.1107   -1.0088 H       1  LIG1        0.0278
     39 H          -5.1174    5.2390    0.5044 H       1  LIG1        0.0278
     40 O         -10.9556    5.9008    0.0014 O.3     4  HOH4       -0.4105
     41 H         -11.2531    4.9880    0.0015 H       0  HOH0        0.2052
     42 C         -11.0562    8.2567    0.0047 C.ar    1  LIG1        0.0496
     43 C          -9.6493    8.2703    0.0037 C.ar    1  LIG1        0.0075
     44 C          -8.9946    9.5034    0.0047 C.ar    1  LIG1       -0.0092
     45 C          -9.7600   10.6707    0.0063 C.ar    1  LIG1        0.1355
     46 C         -11.1621   10.5543    0.0069 C.ar    1  LIG1        0.0693
     47 N         -11.8102    9.3730    0.0062 N.ar    1  LIG1       -0.2557
     48 H          -7.8965    9.5537    0.0030 H       1  LIG1        0.0661
     49 H         -11.9177   11.6121    0.0085 H       1  LIG1        0.0867
     50 C         -11.7110    7.1333    0.0040 C.3     1  LIG1       -0.0044
     51 H         -11.1361    6.3850    0.5082 H       0  HOH0        0.2052
     52 H         -11.8903    6.8256   -1.0051 H       1  LIG1        0.0332
     53 H         -12.6456    7.2650    0.5081 H       1  LIG1        0.0332
     54 O          -9.1979   11.8429    0.0071 O.3     1  LIG1       -0.5052
     55 H          -9.8754   12.5231    0.0072 H       1  LIG1        0.2922
@<TRIPOS>BOND
     1    24    22    1
     2    38    36    1
     3    11     9    1
     4    52    50    1
     5    21    17    1
     6     7     3    1
     7    35    33    1
     8    27    26    1
     9    16    17   ar
    10    16     5    1
    11    16    15   ar
    12    26    18    1
    13    19    18   ar
    14    19    30    1
    15    19    20   ar
    16    17    18   ar
    17    13    25    1
    18     5     6   ar
    19     5     4   ar
    20    30    33   ar
    21    30    28   ar
    22    15    20   ar
    23    15    22    1
    24    22    23    1
    25     6     1   ar
    26     4     3   ar
    27    33    34   ar
    28     3     2   ar
    29     2     1   ar
    30     2     8    1
    31     1     9    1
    32    36    28    1
    33    36    39    1
    34    36    37    1
    35     9    12    1
    36     9    10    1
    37    28    29   ar
    38    34    31   ar
    39    40    41    1
    40    40    51    1
    41    29    31   ar
    42    29    32    1
    43    31    43    1
    44    48    44    1
    45    43    42   ar
    46    43    44   ar
    47    50    42    1
    48    50    53    1
    49    42    47   ar
    50    44    45   ar
    51    47    46   ar
    52    45    46   ar
    53    45    54    1
    54    46    49    1
    55    54    55    1
