@<TRIPOS>MOLECULE
mol_data/noopt/geoms/mol2/6ig.out
 15 15 0 0 0
SMALL
GASTEIGER

@<TRIPOS>ATOM
      1 C          -4.5775   -2.0270    0.0001 C.ar    1  LIG1        0.0383
      2 C          -3.1706   -2.0270    0.0001 C.ar    1  LIG1       -0.0396
      3 C          -2.5039   -0.8004    0.0001 C.ar    1  LIG1       -0.0454
      4 C          -3.2580    0.3743   -0.0001 C.ar    1  LIG1        0.0229
      5 C          -4.6612    0.2715   -0.0003 C.ar    1  LIG1        0.0410
      6 N          -5.3207   -0.9034   -0.0001 N.ar    1  LIG1       -0.2591
      7 H          -1.4054   -0.7607   -0.0009 H       1  LIG1        0.0629
      8 H          -2.5135   -3.1487    0.0004 H       1  LIG1        0.0636
      9 H          -5.4065    1.3366   -0.0004 H       1  LIG1        0.0841
     10 C          -5.2433   -3.1440    0.0002 C.3     1  LIG1       -0.0224
     11 H          -4.6754   -3.8976    0.5047 H       1  LIG1        0.0292
     12 H          -5.4259   -3.4505   -1.0086 H       1  LIG1        0.0292
     13 H          -6.1763   -3.0029    0.5046 H       1  LIG1        0.0292
     14 S          -2.6846    1.5410   -0.0003 S.3     1  LIG1       -0.1412
     15 H          -3.6000    2.4781   -0.0004 H       1  LIG1        0.1072
@<TRIPOS>BOND
     1    12    10    1
     2     7     3    1
     3     9     5    1
     4    15    14    1
     5     5     4   ar
     6     5     6   ar
     7    14     4    1
     8     4     3   ar
     9     6     1   ar
    10     1     2   ar
    11     1    10    1
    12     2     3   ar
    13     2     8    1
    14    10    13    1
    15    10    11    1
