@<TRIPOS>MOLECULE
mol_data/noopt/geoms/mol2/6ih4fi(40)6ed(340)12ef(270).out
 52 55 0 0 0
SMALL
GASTEIGER

@<TRIPOS>ATOM
      1 C          -4.5775   -2.0270    0.0001 C.ar    1  LIG1        0.0390
      2 C          -3.1706   -2.0270    0.0001 C.ar    1  LIG1       -0.0389
      3 C          -2.5039   -0.8004    0.0001 C.ar    1  LIG1       -0.0373
      4 C          -3.2580    0.3743   -0.0001 C.ar    1  LIG1        0.0510
      5 C          -4.6612    0.2715   -0.0003 C.ar    1  LIG1        0.0953
      6 N          -5.3207   -0.9034   -0.0001 N.ar    1  LIG1       -0.2499
      7 H          -1.4054   -0.7607   -0.0009 H       1  LIG1        0.0637
      8 H          -2.5135   -3.1487    0.0004 H       1  LIG1        0.0636
      9 C          -5.2433   -3.1440    0.0002 C.3     1  LIG1       -0.0223
     10 H          -4.6754   -3.8976    0.5047 H       1  LIG1        0.0292
     11 H          -5.4259   -3.4505   -1.0086 H       1  LIG1        0.0292
     12 H          -6.1763   -3.0029    0.5046 H       1  LIG1        0.0292
     13 N          -2.6846    1.5410   -0.0003 N.pl3   1  LIG1       -0.3563
     14 H          -1.8048    1.4799   -0.4718 H       1  LIG1        0.1424
     15 H          -3.2703    2.2002   -0.4718 H       1  LIG1        0.1424
     16 C          -5.0424    2.4488    0.7859 C.ar    1  LIG1        0.1267
     17 C          -5.8837    3.5777    0.7524 C.ar    1  LIG1       -0.0115
     18 C          -5.4065    1.3366   -0.0004 C.ar    1  LIG1        0.0438
     19 C          -7.0366    3.6007   -0.0290 C.ar    1  LIG1       -0.0088
     20 H          -5.6215    4.4468    1.3517 H       1  LIG1        0.0660
     21 C          -6.5574    1.3590   -0.7807 C.ar    1  LIG1       -0.0455
     22 C          -7.3801    2.4900   -0.8009 C.ar    1  LIG1       -0.0418
     23 H          -6.8168    0.4887   -1.3783 H       1  LIG1        0.0628
     24 O          -3.9800    2.4870    1.5342 O.3     1  LIG1       -0.5061
     25 H          -3.7507    3.4008    1.7186 H       1  LIG1        0.2922
     26 C          -8.4551    2.5051   -1.5323 C.3     1  LIG1       -0.0391
     27 H          -9.0460    1.6397   -1.3159 H       1  LIG1        0.0278
     28 H          -8.1826    2.5012   -2.5670 H       1  LIG1        0.0278
     29 H          -9.0213    3.3869   -1.3159 H       1  LIG1        0.0278
     30 C          -9.1336    4.5793    0.3748 C.ar    1  LIG1        0.1217
     31 C          -7.7905    4.6597   -0.0362 C.ar    1  LIG1        0.0176
     32 C          -7.2924    5.8970   -0.4485 C.ar    1  LIG1       -0.0318
     33 C          -8.1448    7.0024   -0.4367 C.ar    1  LIG1        0.0814
     34 C          -9.4729    6.8217   -0.0087 C.ar    1  LIG1        0.1260
     35 N          -9.9699    5.6354    0.3925 N.ar    1  LIG1       -0.2334
     36 H          -6.2484    5.9984   -0.7775 H       1  LIG1        0.0638
     37 C          -9.6431    3.4496    0.7674 C.1     1  LIG1       -0.0492
     38 C         -10.1138    2.4057    1.1302 C.1     1  LIG1       -0.1124
     39 H         -10.5332    1.4758    1.4533 H       1  LIG1        0.1232
     40 N          -7.3623    9.2106   -1.1417 N.1     1  LIG1       -0.1908
     41 C          -7.7290    8.1757   -0.8113 C.1     1  LIG1        0.1014
     42 C         -10.3045    7.8204    0.0201 C.ar    1  LIG1        0.1732
     43 C         -10.9473    8.5924   -0.9254 C.ar    1  LIG1        0.1133
     44 C         -11.7491    9.5552   -0.1993 C.ar    1  LIG1        0.1709
     45 C         -11.5430    9.3075    1.1422 C.ar    1  LIG1        0.1352
     46 O         -10.6561    8.2424    1.3030 O.2     1  LIG1       -0.4563
     47 H         -11.9721    9.8229    2.2559 H       1  LIG1        0.1068
     48 C         -10.8672    8.4962   -2.2193 C.1     1  LIG1       -0.0621
     49 C         -10.7931    8.4074   -3.4149 C.1     1  LIG1       -0.1137
     50 H         -10.7271    8.3283   -4.4800 H       1  LIG1        0.1232
     51 O         -12.5075   10.4660   -0.7335 O.3     1  LIG1       -0.5028
     52 H         -13.3898   10.1114   -0.8652 H       1  LIG1        0.2923
@<TRIPOS>BOND
     1    50    49    1
     2    49    48    3
     3    28    26    1
     4    48    43    1
     5    26    29    1
     6    26    27    1
     7    26    22    1
     8    23    21    1
     9    40    41    3
    10    11     9    1
    11    43    44   ar
    12    43    42   ar
    13    52    51    1
    14    41    33    1
    15    22    21   ar
    16    22    19   ar
    17    21    18   ar
    18    36    32    1
    19    51    44    1
    20    15    13    1
    21    14    13    1
    22    32    33   ar
    23    32    31   ar
    24    33    34   ar
    25    44    45   ar
    26    31    19    1
    27    31    30   ar
    28    19    17   ar
    29    34    42    1
    30    34    35   ar
    31     7     3    1
    32    18     5    1
    33    18    16   ar
    34     5     4   ar
    35     5     6   ar
    36    13     4    1
    37     4     3   ar
    38     6     1   ar
    39     1     2   ar
    40     1     9    1
    41     2     3   ar
    42     2     8    1
    43     9    12    1
    44     9    10    1
    45    42    46   ar
    46    30    35   ar
    47    30    37    1
    48    17    16   ar
    49    17    20    1
    50    37    38    3
    51    16    24    1
    52    38    39    1
    53    45    46   ar
    54    45    47    1
    55    24    25    1
