@<TRIPOS>MOLECULE
mol_data/noopt/geoms/mol2/6ih6ih-.out
 30 30 0 0 0
SMALL
GASTEIGER

@<TRIPOS>ATOM
      1 C          -4.5775   -2.0270    0.0001 C.ar    1  LIG1        0.0390
      2 C          -3.1706   -2.0270    0.0001 C.ar    1  LIG1       -0.0389
      3 C          -2.5039   -0.8004    0.0001 C.ar    1  LIG1       -0.0373
      4 C          -3.2580    0.3743   -0.0001 C.ar    1  LIG1        0.0510
      5 C          -4.6612    0.2715   -0.0003 C.ar    1  LIG1        0.0940
      6 N          -5.3207   -0.9034   -0.0001 N.ar    1  LIG1       -0.2500
      7 H          -1.4054   -0.7607   -0.0009 H       1  LIG1        0.0637
      8 H          -2.5135   -3.1487    0.0004 H       1  LIG1        0.0636
      9 C          -5.2433   -3.1440    0.0002 C.3     1  LIG1       -0.0223
     10 H          -4.6754   -3.8976    0.5047 H       1  LIG1        0.0292
     11 H          -5.4259   -3.4505   -1.0086 H       1  LIG1        0.0292
     12 H          -6.1763   -3.0029    0.5046 H       1  LIG1        0.0292
     13 N          -2.6846    1.5410   -0.0003 N.pl3   1  LIG1       -0.3563
     14 H          -1.8048    1.4799   -0.4718 H       1  LIG1        0.1424
     15 H          -3.2703    2.2002   -0.4718 H       1  LIG1        0.0227
     16 C          -4.8196    2.6153   -0.0003 C.ar    1  LIG1        0.0991
     17 C          -5.4065    1.3366   -0.0004 C.ar    1  LIG1        0.0314
     18 C          -6.7994    1.2424   -0.0003 C.ar    1  LIG1       -0.0282
     19 C          -7.5524    2.4178   -0.0003 C.ar    1  LIG1        0.0436
     20 C          -6.8736    3.6502   -0.0004 C.ar    1  LIG1        0.0490
     21 N          -5.5307    3.7594   -0.0003 N.ar    1  LIG1       -0.2509
     22 H          -7.2937    0.2606   -0.0014 H       1  LIG1        0.0644
     23 H          -7.5307    4.7719   -0.0003 H       1  LIG1        0.0848
     24 C          -3.5268    2.7544   -0.0003 C.3     2  LIG2       -0.0681
     25 H          -3.2656    3.6611    0.5042 H       1  LIG1        0.0227
     26 H          -3.1721    2.7926   -1.0091 H       1  LIG1        0.0227
     27 H          -3.0787    1.9238    0.5041 H       1  LIG1        0.1424
     28 N          -8.8520    2.3834   -0.0004 N.pl3   1  LIG1       -0.3568
     29 H          -9.2068    3.1908   -0.4718 H       1  LIG1        0.1424
     30 H          -9.1636    1.5584   -0.4719 H       1  LIG1        0.1424
@<TRIPOS>BOND
     1    26    24    1
     2    11     9    1
     3    30    28    1
     4    29    28    1
     5    15    24    1
     6    14    13    1
     7    22    18    1
     8     7     3    1
     9    17    18   ar
    10    17     5    1
    11    17    16   ar
    12    28    19    1
    13    20    19   ar
    14    20    23    1
    15    20    21   ar
    16    18    19   ar
    17    13     4    1
    18    13    27    1
    19     5     6   ar
    20     5     4   ar
    21    16    21   ar
    22    24    25    1
    23     6     1   ar
    24     4     3   ar
    25     1     2   ar
    26     1     9    1
    27     3     2   ar
    28     2     8    1
    29     9    12    1
    30     9    10    1
