@<TRIPOS>MOLECULE
mol_data/noopt/geoms/mol2/6ih6ih6ih6ih-.out
 58 60 0 0 0
SMALL
GASTEIGER

@<TRIPOS>ATOM
      1 C          -4.5775   -2.0270    0.0001 C.ar    1  LIG1        0.0390
      2 C          -3.1706   -2.0270    0.0001 C.ar    1  LIG1       -0.0389
      3 C          -2.5039   -0.8004    0.0001 C.ar    1  LIG1       -0.0373
      4 C          -3.2580    0.3743   -0.0001 C.ar    1  LIG1        0.0510
      5 C          -4.6612    0.2715   -0.0003 C.ar    1  LIG1        0.0936
      6 N          -5.3207   -0.9034   -0.0001 N.ar    1  LIG1       -0.2500
      7 H          -1.4054   -0.7607   -0.0009 H       1  LIG1        0.0637
      8 H          -2.5135   -3.1487    0.0004 H       1  LIG1        0.0636
      9 C          -5.2433   -3.1440    0.0002 C.3     1  LIG1       -0.0223
     10 H          -4.6754   -3.8976    0.5047 H       1  LIG1        0.0292
     11 H          -5.4259   -3.4505   -1.0086 H       1  LIG1        0.0292
     12 H          -6.1763   -3.0029    0.5046 H       1  LIG1        0.0292
     13 N          -2.6846    1.5410   -0.0003 N.pl3   1  LIG1       -0.3563
     14 H          -1.8048    1.4799   -0.4718 H       1  LIG1        0.1424
     15 H          -3.2703    2.2002   -0.4718 H       1  LIG1        0.1424
     16 C          -6.8088    1.2233   -0.0003 C.ar    1  LIG1        0.0482
     17 C          -5.4065    1.3366   -0.0004 C.ar    1  LIG1        0.0249
     18 C          -4.8408    2.6129   -0.0003 C.ar    1  LIG1       -0.0280
     19 C          -5.6871    3.7231   -0.0003 C.ar    1  LIG1        0.0516
     20 C          -7.0774    3.5076   -0.0004 C.ar    1  LIG1        0.0936
     21 N          -7.6401    2.2834   -0.0003 N.ar    1  LIG1       -0.2493
     22 H          -3.7491    2.7410   -0.0014 H       1  LIG1        0.0644
     23 C          -7.3825    0.0563   -0.0003 C.3     1  LIG1       -0.0217
     24 H          -6.7558   -0.6491    0.5041 H       1  LIG1        0.0293
     25 H          -7.5398   -0.2638   -1.0091 H       1  LIG1        0.0293
     26 H          -8.3239    0.1217    0.5041 H       1  LIG1        0.0293
     27 N          -5.2095    4.9322   -0.0004 N.pl3   1  LIG1       -0.3563
     28 H          -4.3276    4.9422   -0.4718 H       1  LIG1        0.1424
     29 H          -5.8464    5.5421   -0.4718 H       1  LIG1        0.1424
     30 C          -9.2948    4.2833   -0.0001 C.ar    1  LIG1        0.0482
     31 C          -7.9061    4.5092   -0.0003 C.ar    1  LIG1        0.0249
     32 C          -7.4450    5.8270   -0.0001 C.ar    1  LIG1       -0.0280
     33 C          -8.3780    6.8653    0.0002 C.ar    1  LIG1        0.0516
     34 C          -9.7465    6.5385    0.0002 C.ar    1  LIG1        0.0940
     35 N         -10.2087    5.2730    0.0002 N.ar    1  LIG1       -0.2493
     36 H          -6.3672    6.0425   -0.0012 H       1  LIG1        0.0644
     37 C          -9.7725    3.0739   -0.0002 C.3     1  LIG1       -0.0217
     38 H          -9.0910    2.4212    0.5042 H       1  LIG1        0.0293
     39 H          -9.9035    2.7422   -1.0090 H       1  LIG1        0.0293
     40 H         -10.7161    3.0632    0.5042 H       1  LIG1        0.0293
     41 N          -7.9993    8.1090    0.0002 N.pl3   1  LIG1       -0.3563
     42 H          -7.1212    8.1900   -0.4712 H       1  LIG1        0.1424
     43 H          -8.6833    8.6657   -0.4712 H       1  LIG1        0.0227
     44 C         -10.2792    8.8264    0.0008 C.ar    1  LIG1        0.0991
     45 C         -10.6531    7.4702    0.0005 C.ar    1  LIG1        0.0314
     46 C         -12.0128    7.1535    0.0008 C.ar    1  LIG1       -0.0282
     47 C         -12.9448    8.1927    0.0012 C.ar    1  LIG1        0.0436
     48 C         -12.4727    9.5181    0.0013 C.ar    1  LIG1        0.0490
     49 N         -11.1648    9.8416    0.0012 N.ar    1  LIG1       -0.2509
     50 H         -12.3431    6.1051   -0.0005 H       1  LIG1        0.0644
     51 H         -13.3014   10.5197    0.0018 H       1  LIG1        0.0848
     52 C          -9.0254    9.1713    0.0006 C.3     2  LIG2       -0.0681
     53 H          -8.9132   10.1083    0.5050 H       1  LIG1        0.0227
     54 H          -8.6817    9.2660   -1.0083 H       1  LIG1        0.0227
     55 H          -8.4498    8.4236    0.5049 H       1  LIG1        0.1424
     56 N         -14.2220    7.9501    0.0013 N.pl3   1  LIG1       -0.3568
     57 H         -14.7019    8.6900   -0.4700 H       1  LIG1        0.1424
     58 H         -14.3971    7.0857   -0.4701 H       1  LIG1        0.1424
@<TRIPOS>BOND
     1    25    23    1
     2    39    37    1
     3    11     9    1
     4    54    52    1
     5    29    27    1
     6    28    27    1
     7    15    13    1
     8    14    13    1
     9    43    52    1
    10    42    41    1
    11    58    56    1
    12    57    56    1
    13    22    18    1
    14    36    32    1
    15     7     3    1
    16    50    46    1
    17    17     5    1
    18    17    16   ar
    19    17    18   ar
    20    20    21   ar
    21    20    31    1
    22    20    19   ar
    23    27    19    1
    24    13     4    1
    25     5     6   ar
    26     5     4   ar
    27    16    23    1
    28    16    21   ar
    29    18    19   ar
    30    23    26    1
    31    23    24    1
    32    31    30   ar
    33    31    32   ar
    34    37    30    1
    35    37    40    1
    36    37    38    1
    37     6     1   ar
    38     4     3   ar
    39    30    35   ar
    40    32    33   ar
    41     2     3   ar
    42     2     1   ar
    43     2     8    1
    44     1     9    1
    45    35    34   ar
    46    34    33   ar
    47    34    45    1
    48    33    41    1
    49    41    55    1
    50     9    12    1
    51     9    10    1
    52    45    46   ar
    53    45    44   ar
    54    52    53    1
    55    46    47   ar
    56    44    49   ar
    57    47    48   ar
    58    47    56    1
    59    49    48   ar
    60    48    51    1
