@<TRIPOS>MOLECULE
mol_data/noopt/geoms/mol2/6ih6ih-6ih.out
 44 44 0 0 0
SMALL
GASTEIGER

@<TRIPOS>ATOM
      1 C          -4.5775   -2.0270    0.0001 C.ar    1  LIG1        0.0390
      2 C          -3.1706   -2.0270    0.0001 C.ar    1  LIG1       -0.0389
      3 C          -2.5039   -0.8004    0.0001 C.ar    1  LIG1       -0.0373
      4 C          -3.2580    0.3743   -0.0001 C.ar    1  LIG1        0.0510
      5 C          -4.6612    0.2715   -0.0003 C.ar    1  LIG1        0.0940
      6 N          -5.3207   -0.9034   -0.0001 N.ar    1  LIG1       -0.2500
      7 H          -1.4054   -0.7607   -0.0009 H       1  LIG1        0.0637
      8 H          -2.5135   -3.1487    0.0004 H       1  LIG1        0.0636
      9 C          -5.2433   -3.1440    0.0002 C.3     1  LIG1       -0.0223
     10 H          -4.6754   -3.8976    0.5047 H       1  LIG1        0.0292
     11 H          -5.4259   -3.4505   -1.0086 H       1  LIG1        0.0292
     12 H          -6.1763   -3.0029    0.5046 H       1  LIG1        0.0292
     13 N          -2.6846    1.5410   -0.0003 N.pl3   1  LIG1       -0.3563
     14 H          -1.8048    1.4799   -0.4718 H       1  LIG1        0.1424
     15 H          -3.2703    2.2002   -0.4718 H       1  LIG1        0.0227
     16 C          -4.8196    2.6153   -0.0003 C.ar    1  LIG1        0.0998
     17 C          -5.4065    1.3366   -0.0004 C.ar    1  LIG1        0.0314
     18 C          -6.7994    1.2424   -0.0003 C.ar    1  LIG1       -0.0276
     19 C          -7.5524    2.4178   -0.0003 C.ar    1  LIG1        0.0516
     20 C          -6.8736    3.6502   -0.0004 C.ar    1  LIG1        0.0945
     21 N          -5.5307    3.7594   -0.0003 N.ar    1  LIG1       -0.2426
     22 H          -7.2937    0.2606   -0.0014 H       1  LIG1        0.0644
     23 C          -3.5268    2.7544   -0.0003 C.3     2  LIG2       -0.0681
     24 H          -3.2656    3.6611    0.5042 H       1  LIG1        0.0227
     25 H          -3.1721    2.7926   -1.0091 H       1  LIG1        0.0227
     26 H          -3.0787    1.9238    0.5041 H       1  LIG1        0.1424
     27 N          -8.8520    2.3834   -0.0004 N.pl3   1  LIG1       -0.3563
     28 H          -9.2068    3.1908   -0.4718 H       2  LIG2        0.0227
     29 H          -9.1636    1.5584   -0.4719 H       1  LIG1        0.1424
     30 C          -8.9376    4.7719   -0.0001 C.ar    1  LIG1        0.0991
     31 C          -7.5307    4.7719   -0.0003 C.ar    1  LIG1        0.0314
     32 C          -6.8640    5.9985   -0.0001 C.ar    1  LIG1       -0.0282
     33 C          -7.6181    7.1732    0.0002 C.ar    1  LIG1        0.0436
     34 C          -9.0213    7.0704    0.0002 C.ar    1  LIG1        0.0490
     35 N          -9.6808    5.8955    0.0002 N.ar    1  LIG1       -0.2509
     36 H          -5.7655    6.0382   -0.0012 H       1  LIG1        0.0644
     37 H          -9.7666    8.1355    0.0005 H       1  LIG1        0.0848
     38 C          -9.6034    3.6549   -0.0002 C.3     3  LIG3       -0.0681
     39 H          -9.0356    2.9012    0.5043 H       1  LIG1        0.1424
     40 H          -9.7859    3.3486   -1.0090 H       2  LIG2        0.0227
     41 H         -10.5365    3.7959    0.5042 H       2  LIG2        0.0227
     42 N          -7.0447    8.3399    0.0002 N.pl3   1  LIG1       -0.3568
     43 H          -6.1649    8.2789   -0.4712 H       1  LIG1        0.1424
     44 H          -7.6304    8.9992   -0.4712 H       1  LIG1        0.1424
@<TRIPOS>BOND
     1    25    23    1
     2    40    38    1
     3    11     9    1
     4    29    27    1
     5    28    38    1
     6    15    23    1
     7    14    13    1
     8    44    42    1
     9    43    42    1
    10    22    18    1
    11    36    32    1
    12     7     3    1
    13    17    18   ar
    14    17     5    1
    15    17    16   ar
    16    27    19    1
    17    27    39    1
    18    20    19   ar
    19    20    31    1
    20    20    21   ar
    21    18    19   ar
    22    13     4    1
    23    13    26    1
    24     5     4   ar
    25     5     6   ar
    26    31    30   ar
    27    31    32   ar
    28    16    21   ar
    29    23    24    1
    30    38    41    1
    31     4     3   ar
    32     6     1   ar
    33    30    35   ar
    34    32    33   ar
    35     1     2   ar
    36     1     9    1
    37     2     3   ar
    38     2     8    1
    39    35    34   ar
    40    34    33   ar
    41    34    37    1
    42    33    42    1
    43     9    12    1
    44     9    10    1
