@<TRIPOS>MOLECULE
mol_data/noopt/geoms/mol2/6ih6ih-6ih6ih-.out
 58 58 0 0 0
SMALL
GASTEIGER

@<TRIPOS>ATOM
      1 C          -4.5775   -2.0270    0.0001 C.ar    1  LIG1        0.0390
      2 C          -3.1706   -2.0270    0.0001 C.ar    1  LIG1       -0.0389
      3 C          -2.5039   -0.8004    0.0001 C.ar    1  LIG1       -0.0373
      4 C          -3.2580    0.3743   -0.0001 C.ar    1  LIG1        0.0510
      5 C          -4.6612    0.2715   -0.0003 C.ar    1  LIG1        0.0940
      6 N          -5.3207   -0.9034   -0.0001 N.ar    1  LIG1       -0.2500
      7 H          -1.4054   -0.7607   -0.0009 H       1  LIG1        0.0637
      8 H          -2.5135   -3.1487    0.0004 H       1  LIG1        0.0636
      9 C          -5.2433   -3.1440    0.0002 C.3     1  LIG1       -0.0223
     10 H          -4.6754   -3.8976    0.5047 H       1  LIG1        0.0292
     11 H          -5.4259   -3.4505   -1.0086 H       1  LIG1        0.0292
     12 H          -6.1763   -3.0029    0.5046 H       1  LIG1        0.0292
     13 N          -2.6846    1.5410   -0.0003 N.pl3   1  LIG1       -0.3563
     14 H          -1.8048    1.4799   -0.4718 H       1  LIG1        0.1424
     15 H          -3.2703    2.2002   -0.4718 H       1  LIG1        0.0227
     16 C          -4.8196    2.6153   -0.0003 C.ar    1  LIG1        0.0998
     17 C          -5.4065    1.3366   -0.0004 C.ar    1  LIG1        0.0314
     18 C          -6.7994    1.2424   -0.0003 C.ar    1  LIG1       -0.0276
     19 C          -7.5524    2.4178   -0.0003 C.ar    1  LIG1        0.0516
     20 C          -6.8736    3.6502   -0.0004 C.ar    1  LIG1        0.0945
     21 N          -5.5307    3.7594   -0.0003 N.ar    1  LIG1       -0.2426
     22 H          -7.2937    0.2606   -0.0014 H       1  LIG1        0.0644
     23 C          -3.5268    2.7544   -0.0003 C.3     2  LIG2       -0.0681
     24 H          -3.2656    3.6611    0.5042 H       1  LIG1        0.0227
     25 H          -3.1721    2.7926   -1.0091 H       1  LIG1        0.0227
     26 H          -3.0787    1.9238    0.5041 H       1  LIG1        0.1424
     27 N          -8.8520    2.3834   -0.0004 N.pl3   1  LIG1       -0.3563
     28 H          -9.2068    3.1908   -0.4718 H       2  LIG2        0.0227
     29 H          -9.1636    1.5584   -0.4719 H       1  LIG1        0.1424
     30 C          -8.9376    4.7719   -0.0001 C.ar    1  LIG1        0.0998
     31 C          -7.5307    4.7719   -0.0003 C.ar    1  LIG1        0.0314
     32 C          -6.8640    5.9985   -0.0001 C.ar    1  LIG1       -0.0276
     33 C          -7.6181    7.1732    0.0002 C.ar    1  LIG1        0.0516
     34 C          -9.0213    7.0704    0.0002 C.ar    1  LIG1        0.0945
     35 N          -9.6808    5.8955    0.0002 N.ar    1  LIG1       -0.2426
     36 H          -5.7655    6.0382   -0.0012 H       1  LIG1        0.0644
     37 C          -9.6034    3.6549   -0.0002 C.3     3  LIG3       -0.0681
     38 H          -9.0356    2.9012    0.5043 H       1  LIG1        0.1424
     39 H          -9.7859    3.3486   -1.0090 H       2  LIG2        0.0227
     40 H         -10.5365    3.7959    0.5042 H       2  LIG2        0.0227
     41 N          -7.0447    8.3399    0.0002 N.pl3   1  LIG1       -0.3563
     42 H          -6.1649    8.2789   -0.4712 H       1  LIG1        0.1424
     43 H          -7.6304    8.9992   -0.4712 H       3  LIG3        0.0227
     44 C          -9.1798    9.4141    0.0008 C.ar    1  LIG1        0.0991
     45 C          -9.7667    8.1355    0.0005 C.ar    1  LIG1        0.0314
     46 C         -11.1596    8.0413    0.0008 C.ar    1  LIG1       -0.0282
     47 C         -11.9126    9.2167    0.0012 C.ar    1  LIG1        0.0436
     48 C         -11.2338   10.4491    0.0013 C.ar    1  LIG1        0.0490
     49 N          -9.8909   10.5583    0.0012 N.ar    1  LIG1       -0.2509
     50 H         -11.6539    7.0595   -0.0005 H       1  LIG1        0.0644
     51 H         -11.8909   11.5707    0.0018 H       1  LIG1        0.0848
     52 C          -7.8869    9.5532    0.0006 C.3     4  LIG4       -0.0681
     53 H          -7.6257   10.4600    0.5050 H       3  LIG3        0.0227
     54 H          -7.5324    9.5915   -1.0083 H       3  LIG3        0.0227
     55 H          -7.4388    8.7227    0.5049 H       1  LIG1        0.1424
     56 N         -13.2121    9.1823    0.0013 N.pl3   1  LIG1       -0.3568
     57 H         -13.5670    9.9896   -0.4700 H       1  LIG1        0.1424
     58 H         -13.5238    8.3573   -0.4701 H       1  LIG1        0.1424
@<TRIPOS>BOND
     1    25    23    1
     2    39    37    1
     3    11     9    1
     4    54    52    1
     5    29    27    1
     6    28    37    1
     7    15    23    1
     8    14    13    1
     9    43    52    1
    10    42    41    1
    11    58    56    1
    12    57    56    1
    13    22    18    1
    14    36    32    1
    15     7     3    1
    16    50    46    1
    17    17    18   ar
    18    17     5    1
    19    17    16   ar
    20    27    19    1
    21    27    38    1
    22    20    19   ar
    23    20    31    1
    24    20    21   ar
    25    18    19   ar
    26    13     4    1
    27    13    26    1
    28     5     6   ar
    29     5     4   ar
    30    31    30   ar
    31    31    32   ar
    32    16    21   ar
    33    23    24    1
    34    37    40    1
    35     6     1   ar
    36     4     3   ar
    37    30    35   ar
    38    32    33   ar
    39     2     3   ar
    40     2     1   ar
    41     2     8    1
    42     1     9    1
    43    35    34   ar
    44    34    33   ar
    45    34    45    1
    46    33    41    1
    47    41    55    1
    48     9    12    1
    49     9    10    1
    50    45    46   ar
    51    45    44   ar
    52    52    53    1
    53    46    47   ar
    54    44    49   ar
    55    47    48   ar
    56    47    56    1
    57    49    48   ar
    58    48    51    1
