@<TRIPOS>MOLECULE
mol_data/noopt/geoms/mol2/6ih6dl12dh-6hh.out
 53 56 0 0 0
SMALL
GASTEIGER

@<TRIPOS>ATOM
      1 C          -4.5775   -2.0270    0.0001 C.ar    1  LIG1        0.0390
      2 C          -3.1706   -2.0270    0.0001 C.ar    1  LIG1       -0.0389
      3 C          -2.5039   -0.8004    0.0001 C.ar    1  LIG1       -0.0373
      4 C          -3.2580    0.3743   -0.0001 C.ar    1  LIG1        0.0510
      5 C          -4.6612    0.2715   -0.0003 C.ar    1  LIG1        0.0946
      6 N          -5.3207   -0.9034   -0.0001 N.ar    1  LIG1       -0.2499
      7 H          -1.4054   -0.7607   -0.0009 H       1  LIG1        0.0637
      8 H          -2.5135   -3.1487    0.0004 H       1  LIG1        0.0636
      9 C          -5.2433   -3.1440    0.0002 C.3     1  LIG1       -0.0223
     10 H          -4.6754   -3.8976    0.5047 H       1  LIG1        0.0292
     11 H          -5.4259   -3.4505   -1.0086 H       1  LIG1        0.0292
     12 H          -6.1763   -3.0029    0.5046 H       1  LIG1        0.0292
     13 N          -2.6846    1.5410   -0.0003 N.pl3   1  LIG1       -0.3563
     14 H          -1.8048    1.4799   -0.4718 H       1  LIG1        0.1424
     15 H          -3.2703    2.2002   -0.4718 H       1  LIG1        0.1424
     16 C          -6.8088    1.2233   -0.0003 C.ar    1  LIG1        0.1503
     17 C          -5.4065    1.3366   -0.0004 C.ar    1  LIG1        0.0415
     18 C          -4.8408    2.6129   -0.0003 C.ar    1  LIG1       -0.0057
     19 C          -5.6871    3.7231   -0.0003 C.ar    1  LIG1        0.1497
     20 C          -7.0774    3.5076   -0.0004 C.ar    1  LIG1        0.1502
     21 N          -7.6401    2.2834   -0.0003 N.ar    1  LIG1       -0.2288
     22 H          -3.7491    2.7410   -0.0014 H       1  LIG1        0.0662
     23 N          -7.8881   -0.9724   -0.0003 N.1     1  LIG1       -0.1893
     24 C          -7.3823    0.0566   -0.0003 C.1     1  LIG1        0.1198
     25 O          -5.2095    4.9322   -0.0004 O.3     1  LIG1       -0.4928
     26 C          -3.7804    4.8809   -0.0005 C.3     1  LIG1        0.0789
     27 H          -3.3877    5.8763   -0.0007 H       1  LIG1        0.0660
     28 H          -3.4420    4.3642    0.8733 H       1  LIG1        0.0660
     29 H          -3.4421    4.3639   -0.8740 H       1  LIG1        0.0660
     30 C          -7.9061    4.5092   -0.0003 C.ar    1  LIG1        0.1766
     31 C          -7.7876    5.8835    0.0146 C.ar    1  LIG1        0.1203
     32 C          -9.1342    6.4161    0.0040 C.ar    1  LIG1        0.0894
     33 C          -9.9866    5.3313   -0.0167 C.ar    1  LIG1        0.1609
     34 O          -9.2530    4.1444   -0.0199 O.2     1  LIG1       -0.4498
     35 N          -5.7315    7.2090    0.0519 N.1     1  LIG1       -0.1907
     36 C          -6.6951    6.5878    0.0344 C.1     1  LIG1        0.1049
     37 N          -9.4503    7.6771    0.0127 N.pl3   1  LIG1       -0.3540
     38 H          -8.7402    8.2019   -0.4565 H       1  LIG1        0.1425
     39 H         -10.3241    7.8049   -0.4565 H       1  LIG1        0.1425
     40 C         -11.8276    3.8725   -0.0425 C.ar    1  LIG1        0.1270
     41 C         -11.2760    5.1667   -0.0335 C.ar    1  LIG1        0.0603
     42 C         -12.1429    6.2610   -0.0426 C.ar    1  LIG1       -0.0255
     43 C         -13.5191    6.0280   -0.0604 C.ar    1  LIG1        0.0437
     44 C         -13.9747    4.6969   -0.0685 C.ar    1  LIG1        0.0503
     45 N         -13.1525    3.6295   -0.0597 N.ar    1  LIG1       -0.2382
     46 H         -11.7486    7.2871   -0.0370 H       1  LIG1        0.0644
     47 H         -15.2466    4.4289   -0.0850 H       1  LIG1        0.0849
     48 N         -11.0614    2.8223   -0.0344 N.pl3   1  LIG1       -0.3426
     49 H         -11.5229    2.0695   -0.5038 H       1  LIG1        0.1437
     50 H         -10.2037    3.0319   -0.5038 H       1  LIG1        0.1437
     51 N         -14.3674    7.0130   -0.0697 N.pl3   1  LIG1       -0.3568
     52 H         -13.9641    7.7958   -0.5435 H       1  LIG1        0.1424
     53 H         -15.2014    6.7302   -0.5435 H       1  LIG1        0.1424
@<TRIPOS>BOND
     1    11     9    1
     2    29    26    1
     3    53    51    1
     4    52    51    1
     5    50    48    1
     6    49    48    1
     7    15    13    1
     8    14    13    1
     9    39    37    1
    10    38    37    1
    11    47    44    1
    12    51    43    1
    13    44    43   ar
    14    44    45   ar
    15    43    42   ar
    16    45    40   ar
    17    42    46    1
    18    42    41   ar
    19    40    48    1
    20    40    41   ar
    21    41    33    1
    22    34    33   ar
    23    34    30   ar
    24    33    32   ar
    25    22    18    1
    26     7     3    1
    27    27    26    1
    28    26    25    1
    29    26    28    1
    30    17     5    1
    31    17    16   ar
    32    17    18   ar
    33    20    21   ar
    34    20    30    1
    35    20    19   ar
    36    25    19    1
    37     5     6   ar
    38     5     4   ar
    39    13     4    1
    40    16    24    1
    41    16    21   ar
    42    18    19   ar
    43    24    23    3
    44    30    31   ar
    45     6     1   ar
    46     4     3   ar
    47     1     2   ar
    48     1     9    1
    49     3     2   ar
    50     2     8    1
    51     9    12    1
    52     9    10    1
    53    32    37    1
    54    32    31   ar
    55    31    36    1
    56    36    35    3
