@<TRIPOS>MOLECULE
mol_data/noopt/geoms/mol2/6ih6ih-4ih6ih.out
 59 60 0 0 0
SMALL
GASTEIGER

@<TRIPOS>ATOM
      1 C          -4.5775   -2.0270    0.0001 C.ar    1  LIG1        0.0390
      2 C          -3.1706   -2.0270    0.0001 C.ar    1  LIG1       -0.0389
      3 C          -2.5039   -0.8004    0.0001 C.ar    1  LIG1       -0.0373
      4 C          -3.2580    0.3743   -0.0001 C.ar    1  LIG1        0.0510
      5 C          -4.6612    0.2715   -0.0003 C.ar    1  LIG1        0.0940
      6 N          -5.3207   -0.9034   -0.0001 N.ar    1  LIG1       -0.2500
      7 H          -1.4054   -0.7607   -0.0009 H       1  LIG1        0.0637
      8 H          -2.5135   -3.1487    0.0004 H       1  LIG1        0.0636
      9 C          -5.2433   -3.1440    0.0002 C.3     1  LIG1       -0.0223
     10 H          -4.6754   -3.8976    0.5047 H       1  LIG1        0.0292
     11 H          -5.4259   -3.4505   -1.0086 H       1  LIG1        0.0292
     12 H          -6.1763   -3.0029    0.5046 H       1  LIG1        0.0292
     13 N          -2.6846    1.5410   -0.0003 N.pl3   1  LIG1       -0.3563
     14 H          -1.8048    1.4799   -0.4718 H       1  LIG1        0.1424
     15 H          -3.2703    2.2002   -0.4718 H       1  LIG1        0.0227
     16 C          -4.8196    2.6153   -0.0003 C.ar    1  LIG1        0.0998
     17 C          -5.4065    1.3366   -0.0004 C.ar    1  LIG1        0.0314
     18 C          -6.7994    1.2424   -0.0003 C.ar    1  LIG1       -0.0276
     19 C          -7.5524    2.4178   -0.0003 C.ar    1  LIG1        0.0516
     20 C          -6.8736    3.6502   -0.0004 C.ar    1  LIG1        0.0926
     21 N          -5.5307    3.7594   -0.0003 N.ar    1  LIG1       -0.2426
     22 H          -7.2937    0.2606   -0.0014 H       1  LIG1        0.0644
     23 C          -3.5268    2.7544   -0.0003 C.3     2  LIG2       -0.0681
     24 H          -3.2656    3.6611    0.5042 H       1  LIG1        0.0227
     25 H          -3.1721    2.7926   -1.0091 H       1  LIG1        0.0227
     26 H          -3.0787    1.9238    0.5041 H       1  LIG1        0.1424
     27 N          -8.8520    2.3834   -0.0004 N.pl3   1  LIG1       -0.3563
     28 H          -9.2068    3.1908   -0.4718 H       1  LIG1        0.1424
     29 H          -9.1636    1.5584   -0.4719 H       1  LIG1        0.1424
     30 C          -6.8310    5.9958    0.0005 C.ar    1  LIG1       -0.0405
     31 C          -7.5886    7.1830    0.0022 C.ar    1  LIG1       -0.0487
     32 C          -7.5307    4.7718   -0.0003 C.ar    1  LIG1        0.0068
     33 C          -8.9814    7.1551    0.0023 C.ar    1  LIG1        0.0052
     34 H          -7.0688    8.1385    0.0030 H       1  LIG1        0.0627
     35 C          -8.9211    4.7434   -0.0001 C.ar    1  LIG1       -0.0310
     36 C          -9.6560    5.9336    0.0011 C.ar    1  LIG1        0.0331
     37 H          -9.4376    3.7869   -0.0006 H       1  LIG1        0.0643
     38 C          -5.5338    6.0859    0.0002 C.3     1  LIG1       -0.0391
     39 H          -5.2384    6.9822    0.5045 H       1  LIG1        0.0278
     40 H          -5.1783    6.1107   -1.0088 H       1  LIG1        0.0278
     41 H          -5.1174    5.2390    0.5044 H       1  LIG1        0.0278
     42 N         -10.9556    5.9008    0.0014 N.pl3   1  LIG1       -0.3575
     43 H         -11.3095    6.7086   -0.4699 H       2  LIG2        0.0227
     44 H         -11.2683    5.0762   -0.4699 H       1  LIG1        0.1423
     45 C         -11.0562    8.2567    0.0047 C.ar    1  LIG1        0.0976
     46 C          -9.6493    8.2703    0.0037 C.ar    1  LIG1        0.0131
     47 C          -8.9946    9.5034    0.0047 C.ar    1  LIG1       -0.0297
     48 C          -9.7600   10.6707    0.0063 C.ar    1  LIG1        0.0435
     49 C         -11.1621   10.5543    0.0069 C.ar    1  LIG1        0.0490
     50 N         -11.8102    9.3730    0.0062 N.ar    1  LIG1       -0.2510
     51 H          -7.8965    9.5537    0.0030 H       1  LIG1        0.0643
     52 H         -11.9177   11.6121    0.0085 H       1  LIG1        0.0848
     53 C         -11.7110    7.1333    0.0040 C.3     3  LIG3       -0.0681
     54 H         -11.1361    6.3850    0.5082 H       1  LIG1        0.1423
     55 H         -11.8903    6.8256   -1.0051 H       2  LIG2        0.0227
     56 H         -12.6456    7.2650    0.5081 H       2  LIG2        0.0227
     57 N          -9.1979   11.8429    0.0071 N.pl3   1  LIG1       -0.3568
     58 H          -8.3175   11.7907   -0.4642 H       1  LIG1        0.1424
     59 H          -9.7899   12.4967   -0.4642 H       1  LIG1        0.1424
@<TRIPOS>BOND
     1    25    23    1
     2    40    38    1
     3    11     9    1
     4    55    53    1
     5    29    27    1
     6    28    27    1
     7    15    23    1
     8    14    13    1
     9    44    42    1
    10    43    53    1
    11    59    57    1
    12    58    57    1
    13    22    18    1
    14     7     3    1
    15    37    35    1
    16    17    18   ar
    17    17     5    1
    18    17    16   ar
    19    27    19    1
    20    20    19   ar
    21    20    32    1
    22    20    21   ar
    23    18    19   ar
    24    13     4    1
    25    13    26    1
    26     5     6   ar
    27     5     4   ar
    28    32    35   ar
    29    32    30   ar
    30    16    21   ar
    31    23    24    1
    32     6     1   ar
    33     4     3   ar
    34    35    36   ar
    35     1     2   ar
    36     1     9    1
    37     2     3   ar
    38     2     8    1
    39    38    30    1
    40    38    41    1
    41    38    39    1
    42     9    12    1
    43     9    10    1
    44    30    31   ar
    45    36    42    1
    46    36    33   ar
    47    42    54    1
    48    31    33   ar
    49    31    34    1
    50    33    46    1
    51    51    47    1
    52    46    45   ar
    53    46    47   ar
    54    53    56    1
    55    45    50   ar
    56    47    48   ar
    57    50    49   ar
    58    48    49   ar
    59    48    57    1
    60    49    52    1
