@<TRIPOS>MOLECULE
mol_data/noopt/geoms/mol2/6ih6ih6ih.out
 44 46 0 0 0
SMALL
GASTEIGER

@<TRIPOS>ATOM
      1 C          -4.5775   -2.0270    0.0001 C.ar    1  LIG1        0.0390
      2 C          -3.1706   -2.0270    0.0001 C.ar    1  LIG1       -0.0389
      3 C          -2.5039   -0.8004    0.0001 C.ar    1  LIG1       -0.0373
      4 C          -3.2580    0.3743   -0.0001 C.ar    1  LIG1        0.0510
      5 C          -4.6612    0.2715   -0.0003 C.ar    1  LIG1        0.0936
      6 N          -5.3207   -0.9034   -0.0001 N.ar    1  LIG1       -0.2500
      7 H          -1.4054   -0.7607   -0.0009 H       1  LIG1        0.0637
      8 H          -2.5135   -3.1487    0.0004 H       1  LIG1        0.0636
      9 C          -5.2433   -3.1440    0.0002 C.3     1  LIG1       -0.0223
     10 H          -4.6754   -3.8976    0.5047 H       1  LIG1        0.0292
     11 H          -5.4259   -3.4505   -1.0086 H       1  LIG1        0.0292
     12 H          -6.1763   -3.0029    0.5046 H       1  LIG1        0.0292
     13 N          -2.6846    1.5410   -0.0003 N.pl3   1  LIG1       -0.3563
     14 H          -1.8048    1.4799   -0.4718 H       1  LIG1        0.1424
     15 H          -3.2703    2.2002   -0.4718 H       1  LIG1        0.1424
     16 C          -6.8088    1.2233   -0.0003 C.ar    1  LIG1        0.0482
     17 C          -5.4065    1.3366   -0.0004 C.ar    1  LIG1        0.0249
     18 C          -4.8408    2.6129   -0.0003 C.ar    1  LIG1       -0.0280
     19 C          -5.6871    3.7231   -0.0003 C.ar    1  LIG1        0.0516
     20 C          -7.0774    3.5076   -0.0004 C.ar    1  LIG1        0.0936
     21 N          -7.6401    2.2834   -0.0003 N.ar    1  LIG1       -0.2493
     22 H          -3.7491    2.7410   -0.0014 H       1  LIG1        0.0644
     23 C          -7.3825    0.0563   -0.0003 C.3     1  LIG1       -0.0217
     24 H          -6.7558   -0.6491    0.5041 H       1  LIG1        0.0293
     25 H          -7.5398   -0.2638   -1.0091 H       1  LIG1        0.0293
     26 H          -8.3239    0.1217    0.5041 H       1  LIG1        0.0293
     27 N          -5.2095    4.9322   -0.0004 N.pl3   1  LIG1       -0.3563
     28 H          -4.3276    4.9422   -0.4718 H       1  LIG1        0.1424
     29 H          -5.8464    5.5421   -0.4718 H       1  LIG1        0.1424
     30 C          -9.2948    4.2833   -0.0001 C.ar    1  LIG1        0.0475
     31 C          -7.9061    4.5092   -0.0003 C.ar    1  LIG1        0.0249
     32 C          -7.4450    5.8270   -0.0001 C.ar    1  LIG1       -0.0286
     33 C          -8.3780    6.8653    0.0002 C.ar    1  LIG1        0.0435
     34 C          -9.7465    6.5385    0.0002 C.ar    1  LIG1        0.0485
     35 N         -10.2087    5.2730    0.0002 N.ar    1  LIG1       -0.2577
     36 H          -6.3672    6.0425   -0.0012 H       1  LIG1        0.0643
     37 H         -10.6531    7.4701    0.0005 H       1  LIG1        0.0848
     38 C          -9.7725    3.0739   -0.0002 C.3     1  LIG1       -0.0217
     39 H          -9.0910    2.4212    0.5042 H       1  LIG1        0.0293
     40 H          -9.9035    2.7422   -1.0090 H       1  LIG1        0.0293
     41 H         -10.7161    3.0632    0.5042 H       1  LIG1        0.0293
     42 N          -7.9993    8.1090    0.0002 N.pl3   1  LIG1       -0.3568
     43 H          -7.1212    8.1900   -0.4712 H       1  LIG1        0.1424
     44 H          -8.6833    8.6657   -0.4712 H       1  LIG1        0.1424
@<TRIPOS>BOND
     1    25    23    1
     2    40    38    1
     3    11     9    1
     4    29    27    1
     5    28    27    1
     6    15    13    1
     7    14    13    1
     8    44    42    1
     9    43    42    1
    10    22    18    1
    11    36    32    1
    12     7     3    1
    13    17     5    1
    14    17    16   ar
    15    17    18   ar
    16    20    21   ar
    17    20    31    1
    18    20    19   ar
    19    27    19    1
    20    13     4    1
    21     5     4   ar
    22     5     6   ar
    23    16    23    1
    24    16    21   ar
    25    18    19   ar
    26    23    26    1
    27    23    24    1
    28    31    30   ar
    29    31    32   ar
    30    38    30    1
    31    38    41    1
    32    38    39    1
    33     4     3   ar
    34     6     1   ar
    35    30    35   ar
    36    32    33   ar
    37     2     3   ar
    38     2     1   ar
    39     2     8    1
    40     1     9    1
    41    35    34   ar
    42    34    33   ar
    43    34    37    1
    44    33    42    1
    45     9    12    1
    46     9    10    1
