@<TRIPOS>MOLECULE
mol_data/noopt/geoms/mol2/6ih6ih-6ih-6ih.out
 58 59 0 0 0
SMALL
GASTEIGER

@<TRIPOS>ATOM
      1 C          -4.5775   -2.0270    0.0001 C.ar    1  LIG1        0.0390
      2 C          -3.1706   -2.0270    0.0001 C.ar    1  LIG1       -0.0389
      3 C          -2.5039   -0.8004    0.0001 C.ar    1  LIG1       -0.0373
      4 C          -3.2580    0.3743   -0.0001 C.ar    1  LIG1        0.0510
      5 C          -4.6612    0.2715   -0.0003 C.ar    1  LIG1        0.0940
      6 N          -5.3207   -0.9034   -0.0001 N.ar    1  LIG1       -0.2500
      7 H          -1.4054   -0.7607   -0.0009 H       1  LIG1        0.0637
      8 H          -2.5135   -3.1487    0.0004 H       1  LIG1        0.0636
      9 C          -5.2433   -3.1440    0.0002 C.3     1  LIG1       -0.0223
     10 H          -4.6754   -3.8976    0.5047 H       1  LIG1        0.0292
     11 H          -5.4259   -3.4505   -1.0086 H       1  LIG1        0.0292
     12 H          -6.1763   -3.0029    0.5046 H       1  LIG1        0.0292
     13 N          -2.6846    1.5410   -0.0003 N.pl3   1  LIG1       -0.3563
     14 H          -1.8048    1.4799   -0.4718 H       1  LIG1        0.1424
     15 H          -3.2703    2.2002   -0.4718 H       1  LIG1        0.0227
     16 C          -4.8196    2.6153   -0.0003 C.ar    1  LIG1        0.0998
     17 C          -5.4065    1.3366   -0.0004 C.ar    1  LIG1        0.0314
     18 C          -6.7994    1.2424   -0.0003 C.ar    1  LIG1       -0.0276
     19 C          -7.5524    2.4178   -0.0003 C.ar    1  LIG1        0.0516
     20 C          -6.8736    3.6502   -0.0004 C.ar    1  LIG1        0.0941
     21 N          -5.5307    3.7594   -0.0003 N.ar    1  LIG1       -0.2426
     22 H          -7.2937    0.2606   -0.0014 H       1  LIG1        0.0644
     23 C          -3.5268    2.7544   -0.0003 C.3     2  LIG2       -0.0681
     24 H          -3.2656    3.6611    0.5042 H       1  LIG1        0.0227
     25 H          -3.1721    2.7926   -1.0091 H       1  LIG1        0.0227
     26 H          -3.0787    1.9238    0.5041 H       1  LIG1        0.1424
     27 N          -8.8520    2.3834   -0.0004 N.pl3   1  LIG1       -0.3563
     28 H          -9.2068    3.1908   -0.4718 H       1  LIG1        0.1424
     29 H          -9.1636    1.5584   -0.4719 H       1  LIG1        0.1424
     30 C          -6.8427    5.9991   -0.0000 C.ar    1  LIG1        0.0482
     31 C          -7.5307    4.7719   -0.0003 C.ar    1  LIG1        0.0249
     32 C          -8.9267    4.7902   -0.0001 C.ar    1  LIG1       -0.0280
     33 C          -9.5826    6.0224    0.0002 C.ar    1  LIG1        0.0516
     34 C          -8.8067    7.1961    0.0002 C.ar    1  LIG1        0.0940
     35 N          -7.4594    7.1968    0.0002 N.ar    1  LIG1       -0.2493
     36 H          -9.4985    3.8514   -0.0012 H       1  LIG1        0.0644
     37 C          -5.5429    6.0336   -0.0001 C.3     1  LIG1       -0.0217
     38 H          -5.2095    6.9164    0.5043 H       1  LIG1        0.0293
     39 H          -5.1864    6.0431   -1.0090 H       1  LIG1        0.0293
     40 H          -5.1632    5.1697    0.5042 H       1  LIG1        0.0293
     41 N         -10.8807    6.0928    0.0002 N.pl3   1  LIG1       -0.3563
     42 H         -11.1693    6.9261   -0.4712 H       2  LIG2        0.0227
     43 H         -11.2577    5.2955   -0.4713 H       1  LIG1        0.1424
     44 C         -10.7737    8.4804    0.0008 C.ar    1  LIG1        0.0991
     45 C          -9.3714    8.3671    0.0005 C.ar    1  LIG1        0.0314
     46 C          -8.6080    9.5360    0.0008 C.ar    1  LIG1       -0.0282
     47 C          -9.2650   10.7676    0.0012 C.ar    1  LIG1        0.0436
     48 C         -10.6720   10.7782    0.0013 C.ar    1  LIG1        0.0490
     49 N         -11.4240    9.6602    0.0012 N.ar    1  LIG1       -0.2509
     50 H          -7.5099    9.4871   -0.0004 H       1  LIG1        0.0644
     51 H         -11.3291   11.8999    0.0018 H       1  LIG1        0.0848
     52 C         -11.5272    7.4207    0.0006 C.3     3  LIG3       -0.0681
     53 H         -11.0220    6.6237    0.5050 H       1  LIG1        0.1424
     54 H         -11.7338    7.1301   -1.0083 H       2  LIG2        0.0227
     55 H         -12.4460    7.6363    0.5049 H       2  LIG2        0.0227
     56 N          -8.5995   11.8844    0.0014 N.pl3   1  LIG1       -0.3568
     57 H          -7.7275   11.7527   -0.4700 H       1  LIG1        0.1424
     58 H          -9.1302   12.5887   -0.4700 H       1  LIG1        0.1424
@<TRIPOS>BOND
     1    25    23    1
     2    39    37    1
     3    11     9    1
     4    54    52    1
     5    29    27    1
     6    28    27    1
     7    15    23    1
     8    14    13    1
     9    43    41    1
    10    42    52    1
    11    58    56    1
    12    57    56    1
    13    22    18    1
    14    36    32    1
    15     7     3    1
    16    50    46    1
    17    17    18   ar
    18    17     5    1
    19    17    16   ar
    20    27    19    1
    21    20    19   ar
    22    20    31    1
    23    20    21   ar
    24    18    19   ar
    25    13     4    1
    26    13    26    1
    27     5     6   ar
    28     5     4   ar
    29    31    32   ar
    30    31    30   ar
    31    16    21   ar
    32    23    24    1
    33    37    30    1
    34    37    40    1
    35    37    38    1
    36     6     1   ar
    37     4     3   ar
    38    32    33   ar
    39    30    35   ar
    40     2     3   ar
    41     2     1   ar
    42     2     8    1
    43     1     9    1
    44    33    34   ar
    45    33    41    1
    46    34    35   ar
    47    34    45    1
    48    41    53    1
    49     9    12    1
    50     9    10    1
    51    45    44   ar
    52    45    46   ar
    53    52    55    1
    54    44    49   ar
    55    46    47   ar
    56    49    48   ar
    57    47    48   ar
    58    47    56    1
    59    48    51    1
