@<TRIPOS>MOLECULE
mol_data/noopt/geoms/mol2/6ih6ih6ih-6ih.out
 58 59 0 0 0
SMALL
GASTEIGER

@<TRIPOS>ATOM
      1 C          -4.5775   -2.0270    0.0001 C.ar    1  LIG1        0.0390
      2 C          -3.1706   -2.0270    0.0001 C.ar    1  LIG1       -0.0389
      3 C          -2.5039   -0.8004    0.0001 C.ar    1  LIG1       -0.0373
      4 C          -3.2580    0.3743   -0.0001 C.ar    1  LIG1        0.0510
      5 C          -4.6612    0.2715   -0.0003 C.ar    1  LIG1        0.0936
      6 N          -5.3207   -0.9034   -0.0001 N.ar    1  LIG1       -0.2500
      7 H          -1.4054   -0.7607   -0.0009 H       1  LIG1        0.0637
      8 H          -2.5135   -3.1487    0.0004 H       1  LIG1        0.0636
      9 C          -5.2433   -3.1440    0.0002 C.3     1  LIG1       -0.0223
     10 H          -4.6754   -3.8976    0.5047 H       1  LIG1        0.0292
     11 H          -5.4259   -3.4505   -1.0086 H       1  LIG1        0.0292
     12 H          -6.1763   -3.0029    0.5046 H       1  LIG1        0.0292
     13 N          -2.6846    1.5410   -0.0003 N.pl3   1  LIG1       -0.3563
     14 H          -1.8048    1.4799   -0.4718 H       1  LIG1        0.1424
     15 H          -3.2703    2.2002   -0.4718 H       1  LIG1        0.1424
     16 C          -6.8088    1.2233   -0.0003 C.ar    1  LIG1        0.0482
     17 C          -5.4065    1.3366   -0.0004 C.ar    1  LIG1        0.0249
     18 C          -4.8408    2.6129   -0.0003 C.ar    1  LIG1       -0.0280
     19 C          -5.6871    3.7231   -0.0003 C.ar    1  LIG1        0.0516
     20 C          -7.0774    3.5076   -0.0004 C.ar    1  LIG1        0.0940
     21 N          -7.6401    2.2834   -0.0003 N.ar    1  LIG1       -0.2493
     22 H          -3.7491    2.7410   -0.0014 H       1  LIG1        0.0644
     23 C          -7.3825    0.0563   -0.0003 C.3     1  LIG1       -0.0217
     24 H          -6.7558   -0.6491    0.5041 H       1  LIG1        0.0293
     25 H          -7.5398   -0.2638   -1.0091 H       1  LIG1        0.0293
     26 H          -8.3239    0.1217    0.5041 H       1  LIG1        0.0293
     27 N          -5.2095    4.9322   -0.0004 N.pl3   1  LIG1       -0.3563
     28 H          -4.3276    4.9422   -0.4718 H       1  LIG1        0.1424
     29 H          -5.8464    5.5421   -0.4718 H       1  LIG1        0.0227
     30 C          -7.4241    5.8310   -0.0000 C.ar    1  LIG1        0.0998
     31 C          -7.9061    4.5092   -0.0003 C.ar    1  LIG1        0.0314
     32 C          -9.2869    4.3031   -0.0001 C.ar    1  LIG1       -0.0276
     33 C         -10.1321    5.4140    0.0002 C.ar    1  LIG1        0.0516
     34 C          -9.5548    6.6971    0.0002 C.ar    1  LIG1        0.0945
     35 N          -8.2251    6.9141    0.0002 N.ar    1  LIG1       -0.2426
     36 H          -9.7005    3.2847   -0.0012 H       1  LIG1        0.0644
     37 C          -6.1467    6.0738   -0.0001 C.3     2  LIG2       -0.0681
     38 H          -5.9593    6.9986    0.5043 H       1  LIG1        0.0227
     39 H          -5.7963    6.1404   -1.0090 H       1  LIG1        0.0227
     40 H          -5.6331    5.2820    0.5042 H       1  LIG1        0.1424
     41 N         -11.4247    5.2750    0.0002 N.pl3   1  LIG1       -0.3563
     42 H         -11.8434    6.0512   -0.4712 H       2  LIG2        0.0227
     43 H         -11.6688    4.4276   -0.4713 H       1  LIG1        0.1424
     44 C         -11.7025    7.6489    0.0008 C.ar    1  LIG1        0.0991
     45 C         -10.3001    7.7622    0.0005 C.ar    1  LIG1        0.0314
     46 C          -9.7344    9.0385    0.0008 C.ar    1  LIG1       -0.0282
     47 C         -10.5807   10.1487    0.0012 C.ar    1  LIG1        0.0436
     48 C         -11.9710    9.9332    0.0013 C.ar    1  LIG1        0.0490
     49 N         -12.5338    8.7090    0.0012 N.ar    1  LIG1       -0.2509
     50 H          -8.6427    9.1666   -0.0004 H       1  LIG1        0.0644
     51 H         -12.7997   10.9348    0.0018 H       1  LIG1        0.0848
     52 C         -12.2761    6.4819    0.0006 C.3     3  LIG3       -0.0681
     53 H         -11.6494    5.7764    0.5050 H       1  LIG1        0.1424
     54 H         -12.4333    6.1619   -1.0083 H       2  LIG2        0.0227
     55 H         -13.2175    6.5472    0.5049 H       2  LIG2        0.0227
     56 N         -10.1031   11.3578    0.0014 N.pl3   1  LIG1       -0.3568
     57 H          -9.2212   11.3679   -0.4700 H       1  LIG1        0.1424
     58 H         -10.7400   11.9678   -0.4700 H       1  LIG1        0.1424
@<TRIPOS>BOND
     1    25    23    1
     2    39    37    1
     3    11     9    1
     4    54    52    1
     5    29    37    1
     6    28    27    1
     7    15    13    1
     8    14    13    1
     9    43    41    1
    10    42    52    1
    11    58    56    1
    12    57    56    1
    13    22    18    1
    14    36    32    1
    15     7     3    1
    16    50    46    1
    17    17     5    1
    18    17    16   ar
    19    17    18   ar
    20    20    21   ar
    21    20    31    1
    22    20    19   ar
    23    27    19    1
    24    27    40    1
    25    13     4    1
    26     5     6   ar
    27     5     4   ar
    28    16    23    1
    29    16    21   ar
    30    18    19   ar
    31    23    26    1
    32    23    24    1
    33    31    32   ar
    34    31    30   ar
    35    37    38    1
    36     6     1   ar
    37     4     3   ar
    38    32    33   ar
    39    30    35   ar
    40     2     3   ar
    41     2     1   ar
    42     2     8    1
    43     1     9    1
    44    33    41    1
    45    33    34   ar
    46    41    53    1
    47    34    35   ar
    48    34    45    1
    49     9    12    1
    50     9    10    1
    51    45    44   ar
    52    45    46   ar
    53    52    55    1
    54    44    49   ar
    55    46    47   ar
    56    49    48   ar
    57    47    48   ar
    58    47    56    1
    59    48    51    1
