@<TRIPOS>MOLECULE
mol_data/noopt/geoms/mol2/6ii.out
 17 17 0 0 0
SMALL
GASTEIGER

@<TRIPOS>ATOM
      1 C          -4.5775   -2.0270    0.0001 C.ar    1  LIG1        0.0382
      2 C          -3.1706   -2.0270    0.0001 C.ar    1  LIG1       -0.0404
      3 C          -2.5039   -0.8004    0.0001 C.ar    1  LIG1       -0.0557
      4 C          -3.2580    0.3743   -0.0001 C.ar    1  LIG1       -0.0323
      5 C          -4.6612    0.2715   -0.0003 C.ar    1  LIG1        0.0308
      6 N          -5.3207   -0.9034   -0.0001 N.ar    1  LIG1       -0.2599
      7 H          -1.4054   -0.7607   -0.0009 H       1  LIG1        0.0621
      8 H          -2.5135   -3.1487    0.0004 H       1  LIG1        0.0635
      9 H          -5.4065    1.3366   -0.0004 H       1  LIG1        0.0832
     10 C          -5.2433   -3.1440    0.0002 C.3     1  LIG1       -0.0224
     11 H          -4.6754   -3.8976    0.5047 H       1  LIG1        0.0292
     12 H          -5.4259   -3.4505   -1.0086 H       1  LIG1        0.0292
     13 H          -6.1763   -3.0029    0.5046 H       1  LIG1        0.0292
     14 C          -2.6845    1.5413   -0.0003 C.3     1  LIG1       -0.0383
     15 H          -3.3112    2.2468    0.5041 H       1  LIG1        0.0278
     16 H          -2.5273    1.8613   -1.0092 H       1  LIG1        0.0278
     17 H          -1.7430    1.4761    0.5040 H       1  LIG1        0.0278
@<TRIPOS>BOND
     1    16    14    1
     2    12    10    1
     3     7     3    1
     4     9     5    1
     5    14     4    1
     6    14    17    1
     7    14    15    1
     8     5     4   ar
     9     5     6   ar
    10     4     3   ar
    11     6     1   ar
    12     1     2   ar
    13     1    10    1
    14     3     2   ar
    15     2     8    1
    16    10    13    1
    17    10    11    1
