@<TRIPOS>MOLECULE
mol_data/noopt/geoms/mol2/6ii13fd6fd-6hf-4af4he-12hf-6fi-.out
 98 104 0 0 0
SMALL
GASTEIGER

@<TRIPOS>ATOM
      1 C          -4.5775   -2.0270    0.0001 C.ar    1  LIG1        0.0390
      2 C          -3.1706   -2.0270    0.0001 C.ar    1  LIG1       -0.0404
      3 C          -2.5039   -0.8004    0.0001 C.ar    1  LIG1       -0.0551
      4 C          -3.2580    0.3743   -0.0001 C.ar    1  LIG1       -0.0229
      5 C          -4.6612    0.2715   -0.0003 C.ar    1  LIG1        0.0939
      6 N          -5.3207   -0.9034   -0.0001 N.ar    1  LIG1       -0.2500
      7 H          -1.4054   -0.7607   -0.0009 H       1  LIG1        0.0621
      8 H          -2.5135   -3.1487    0.0004 H       1  LIG1        0.0635
      9 C          -5.2433   -3.1440    0.0002 C.3     1  LIG1       -0.0223
     10 H          -4.6754   -3.8976    0.5047 H       1  LIG1        0.0292
     11 H          -5.4259   -3.4505   -1.0086 H       1  LIG1        0.0292
     12 H          -6.1763   -3.0029    0.5046 H       1  LIG1        0.0292
     13 C          -2.6845    1.5413   -0.0003 C.3     1  LIG1       -0.0376
     14 H          -3.3112    2.2468    0.5041 H       1  LIG1        0.0278
     15 H          -2.5273    1.8613   -1.0092 H       1  LIG1        0.0278
     16 H          -1.7430    1.4761    0.5040 H       1  LIG1        0.0278
     17 C          -5.4065    1.3366   -0.0004 C.ar    1  LIG1        0.1089
     18 C          -5.0646    2.6523   -0.0008 C.ar    1  LIG1        0.1616
     19 C          -6.2797    3.4100    0.0004 C.ar    1  LIG1        0.1191
     20 C          -7.3108    2.5240   -0.0003 C.ar    1  LIG1        0.0734
     21 N          -6.7806    1.2535   -0.0003 N.ar    1  LIG1       -0.3488
     22 H          -7.3066    0.4100   -0.0008 H       1  LIG1        0.1661
     23 O          -3.8558    3.1308   -0.0007 O.3     1  LIG1       -0.5034
     24 H          -3.8910    4.0902   -0.0007 H       1  LIG1        0.2923
     25 N          -6.4724    5.8490    0.0023 N.1     1  LIG1       -0.1907
     26 C          -6.3821    4.7060    0.0014 C.1     1  LIG1        0.1050
     27 C          -9.4850    1.6348   -0.0205 C.ar    1  LIG1        0.2223
     28 C          -8.5952    2.7244    0.0002 C.ar    1  LIG1        0.0623
     29 C          -9.1237    4.0164    0.0215 C.ar    1  LIG1       -0.0280
     30 C         -10.5106    4.1753    0.0211 C.ar    1  LIG1        0.0786
     31 C         -11.3184    3.0235   -0.0007 C.ar    1  LIG1        0.0955
     32 N         -10.8254    1.7698   -0.0212 N.ar    1  LIG1       -0.2111
     33 H          -8.4597    4.8923    0.0370 H       1  LIG1        0.0639
     34 O          -9.0410    0.4131   -0.0407 O.3     1  LIG1       -0.4919
     35 H          -8.0810    0.4212   -0.0456 H       1  LIG1        0.2937
     36 N         -11.5289    6.3996    0.0571 N.1     1  LIG1       -0.1908
     37 C         -11.0517    5.3571    0.0403 C.1     1  LIG1        0.1013
     38 C         -13.4139    1.9621   -0.0235 C.ar    1  LIG1        0.1264
     39 C         -12.6148    3.1199   -0.0019 C.ar    1  LIG1        0.0447
     40 C         -13.2457    4.3651    0.0185 C.ar    1  LIG1       -0.0055
     41 C         -14.6408    4.4117    0.0164 C.ar    1  LIG1        0.1435
     42 C         -15.3532    3.1987   -0.0062 C.ar    1  LIG1        0.1145
     43 N         -14.7608    1.9887   -0.0259 N.ar    1  LIG1       -0.2281
     44 H         -12.6544    5.2916    0.0347 H       1  LIG1        0.0662
     45 N         -12.8729    0.7802   -0.0428 N.pl3   1  LIG1       -0.3426
     46 H         -13.4795    0.1437   -0.5192 H       1  LIG1        0.1437
     47 H         -11.9947    0.8234   -0.5192 H       1  LIG1        0.1437
     48 O         -15.2754    5.5462    0.0346 O.3     1  LIG1       -0.5046
     49 H         -16.2216    5.3841    0.0391 H       1  LIG1        0.2922
     50 C         -17.3634    4.4081   -0.0097 C.ar    1  LIG1       -0.0516
     51 C         -18.7703    4.3454   -0.0112 C.ar    1  LIG1       -0.0499
     52 C         -16.6531    3.1903   -0.0090 C.ar    1  LIG1        0.0075
     53 C         -19.4424    3.1252   -0.0126 C.ar    1  LIG1        0.0254
     54 H         -19.3380    5.2733   -0.0116 H       1  LIG1        0.0625
     55 C         -17.3235    1.9718   -0.0103 C.ar    1  LIG1       -0.0103
     56 C         -18.7216    1.9303   -0.0122 C.ar    1  LIG1        0.1252
     57 H         -16.7532    1.0464   -0.0096 H       1  LIG1        0.0661
     58 H         -16.7932    5.5764   -0.0088 H       1  LIG1        0.0624
     59 O         -19.3429    0.7883   -0.0133 O.3     1  LIG1       -0.5061
     60 H         -18.7011    0.0744   -0.0135 H       1  LIG1        0.2922
     61 C         -21.4643    4.3149    0.0073 C.ar    1  LIG1        0.0331
     62 C         -22.8705    4.2386    0.0062 C.ar    1  LIG1       -0.0315
     63 C         -20.7421    3.1042   -0.0140 C.ar    1  LIG1        0.0074
     64 C         -23.5306    3.0120   -0.0156 C.ar    1  LIG1        0.0018
     65 H         -23.4472    5.1607    0.0227 H       1  LIG1        0.0643
     66 C         -21.4007    1.8795   -0.0359 C.ar    1  LIG1       -0.0362
     67 C         -22.7983    1.8244   -0.0369 C.ar    1  LIG1        0.0331
     68 H         -20.8214    0.9598   -0.0519 H       1  LIG1        0.0637
     69 N         -20.9054    5.4885    0.0279 N.pl3   1  LIG1       -0.3575
     70 H         -20.0217    5.4450   -0.4381 H       1  LIG1        0.1423
     71 H         -21.4960    6.1472   -0.4382 H       1  LIG1        0.1423
     72 C         -23.4085    0.6766   -0.0572 C.1     1  LIG1       -0.0690
     73 C         -23.9722   -0.3839   -0.0759 C.1     1  LIG1       -0.1139
     74 H         -24.4744   -1.3286   -0.0927 H       1  LIG1        0.1232
     75 C         -24.8302    2.9784   -0.0160 C.2     1  LIG1        0.0173
     76 C         -25.8383    3.9201   -0.0163 C.2     1  LIG1        0.0790
     77 C         -27.0885    3.1894   -0.0167 C.2     1  LIG1        0.1860
     78 C         -26.7613    1.8491   -0.0167 C.2     1  LIG1        0.2341
     79 O         -25.3747    1.6934   -0.0164 O.2     1  LIG1       -0.2831
     80 N         -25.7179    5.2146   -0.0162 N.pl3   1  LIG1       -0.3546
     81 H         -24.8741    5.4709   -0.4875 H       1  LIG1        0.1424
     82 H         -26.5000    5.6221   -0.4876 H       1  LIG1        0.1424
     83 O         -28.2757    3.7192   -0.0170 O.2     1  LIG1       -0.5019
     84 H         -28.9371    3.0234   -0.0171 H       1  LIG1        0.2924
     85 C         -26.7502   -0.4999   -0.0380 C.ar    1  LIG1        0.2235
     86 C         -27.4277    0.7329   -0.0169 C.ar    1  LIG1        0.0869
     87 C         -28.8237    0.7262    0.0040 C.ar    1  LIG1       -0.0413
     88 C         -29.4899   -0.5005    0.0029 C.ar    1  LIG1       -0.0314
     89 C         -28.7240   -1.6805   -0.0193 C.ar    1  LIG1        0.0343
     90 N         -27.3769   -1.6924   -0.0394 N.ar    1  LIG1       -0.2206
     91 H         -29.3875    1.6697    0.0198 H       1  LIG1        0.0629
     92 H         -29.2984   -2.8467   -0.0211 H       1  LIG1        0.0833
     93 O         -25.4511   -0.5452   -0.0578 O.3     1  LIG1       -0.4919
     94 H         -25.0994    0.3480   -0.0627 H       1  LIG1        0.2937
     95 C         -30.7887   -0.5600    0.0216 C.3     1  LIG1       -0.0383
     96 H         -31.0976   -1.4488    0.5312 H       1  LIG1        0.0278
     97 H         -31.1595   -0.5771   -0.9819 H       1  LIG1        0.0278
     98 H         -31.1777    0.2967    0.5311 H       1  LIG1        0.0278
@<TRIPOS>BOND
     1    15    13    1
     2    11     9    1
     3    97    95    1
     4    47    45    1
     5    46    45    1
     6    82    80    1
     7    81    80    1
     8    71    69    1
     9    70    69    1
    10    74    73    1
    11    73    72    3
    12    94    93    1
    13    93    85    1
    14    72    67    1
    15    68    66    1
    16    35    34    1
    17    45    38    1
    18    34    27    1
    19    90    85   ar
    20    90    89   ar
    21    85    86   ar
    22    67    66   ar
    23    67    64   ar
    24    66    63   ar
    25    43    38   ar
    26    43    42   ar
    27    38    39   ar
    28    32    27   ar
    29    32    31   ar
    30    92    89    1
    31    27    28   ar
    32    89    88   ar
    33    84    83    1
    34    83    77    1
    35    86    78    1
    36    86    87   ar
    37    78    77    2
    38    78    79    1
    39    77    76    1
    40    76    80    1
    41    76    75    2
    42    75    64    1
    43    64    62   ar
    44    63    53    1
    45    63    61   ar
    46    60    59    1
    47    59    56    1
    48    53    56   ar
    49    53    51   ar
    50    56    55   ar
    51    54    51    1
    52    51    50   ar
    53    55    57    1
    54    55    52   ar
    55    50    52   ar
    56    50    58    1
    57    52    42    1
    58    42    41   ar
    59    39    31    1
    60    39    40   ar
    61     7     3    1
    62    18    23    1
    63    18    17   ar
    64    18    19   ar
    65    22    21    1
    66    23    24    1
    67    31    30   ar
    68    17     5    1
    69    17    21   ar
    70    13     4    1
    71    13    16    1
    72    13    14    1
    73     5     6   ar
    74     5     4   ar
    75    21    20   ar
    76    20    28    1
    77    20    19   ar
    78     6     1   ar
    79     4     3   ar
    80     1     2   ar
    81     1     9    1
    82     2     3   ar
    83     2     8    1
    84     9    12    1
    85     9    10    1
    86    28    29   ar
    87    19    26    1
    88    26    25    3
    89    88    87   ar
    90    88    95    1
    91    87    91    1
    92    62    61   ar
    93    62    65    1
    94    61    69    1
    95    41    40   ar
    96    41    48    1
    97    40    44    1
    98    30    29   ar
    99    30    37    1
   100    29    33    1
   101    95    98    1
   102    95    96    1
   103    48    49    1
   104    37    36    3
