@<TRIPOS>MOLECULE
mol_data/noopt/geoms/mol2/6ii12dh(320)4fi(60)12ee(90).out
 52 55 0 0 0
SMALL
GASTEIGER

@<TRIPOS>ATOM
      1 C          -4.5775   -2.0270    0.0001 C.ar    1  LIG1        0.0390
      2 C          -3.1706   -2.0270    0.0001 C.ar    1  LIG1       -0.0404
      3 C          -2.5039   -0.8004    0.0001 C.ar    1  LIG1       -0.0550
      4 C          -3.2580    0.3743   -0.0001 C.ar    1  LIG1       -0.0214
      5 C          -4.6612    0.2715   -0.0003 C.ar    1  LIG1        0.1105
      6 N          -5.3207   -0.9034   -0.0001 N.ar    1  LIG1       -0.2485
      7 H          -1.4054   -0.7607   -0.0009 H       1  LIG1        0.0621
      8 H          -2.5135   -3.1487    0.0004 H       1  LIG1        0.0635
      9 C          -5.2433   -3.1440    0.0002 C.3     1  LIG1       -0.0223
     10 H          -4.6754   -3.8976    0.5047 H       1  LIG1        0.0292
     11 H          -5.4259   -3.4505   -1.0086 H       1  LIG1        0.0292
     12 H          -6.1763   -3.0029    0.5046 H       1  LIG1        0.0292
     13 C          -2.6845    1.5413   -0.0003 C.3     1  LIG1       -0.0376
     14 H          -3.3112    2.2468    0.5041 H       1  LIG1        0.0278
     15 H          -2.5273    1.8613   -1.0092 H       1  LIG1        0.0278
     16 H          -1.7430    1.4761    0.5040 H       1  LIG1        0.0278
     17 C          -5.4065    1.3366   -0.0004 C.ar    1  LIG1        0.1732
     18 C          -5.3316    2.5892   -0.5735 C.ar    1  LIG1        0.1202
     19 C          -6.5198    3.3062   -0.1601 C.ar    1  LIG1        0.0894
     20 C          -7.2424    2.4438    0.6384 C.ar    1  LIG1        0.1611
     21 O          -6.5765    1.2229    0.7518 O.2     1  LIG1       -0.4499
     22 N          -3.5616    3.4743   -2.0121 N.1     1  LIG1       -0.1907
     23 C          -4.3911    3.0595   -1.3379 C.1     1  LIG1        0.1049
     24 N          -6.8225    4.5262   -0.4920 N.pl3   1  LIG1       -0.3540
     25 H          -6.0786    4.9187   -1.0329 H       1  LIG1        0.1425
     26 H          -7.6635    4.5256   -1.0330 H       1  LIG1        0.1425
     27 C          -8.4106    3.1198    2.5574 C.ar    1  LIG1        0.1282
     28 C          -9.6515    3.1602    3.2221 C.ar    1  LIG1       -0.0085
     29 C          -8.3662    2.5059    1.2890 C.ar    1  LIG1        0.0608
     30 C         -10.7989    2.6146    2.6507 C.ar    1  LIG1        0.0249
     31 H          -9.7081    3.6292    4.2019 H       1  LIG1        0.0661
     32 C          -9.5113    1.9610    0.7181 C.ar    1  LIG1       -0.0439
     33 C         -10.7349    2.0114    1.3941 C.ar    1  LIG1       -0.0389
     34 H          -9.4513    1.4929   -0.2611 H       1  LIG1        0.0629
     35 O          -7.3751    3.6461    3.1412 O.3     1  LIG1       -0.5060
     36 H          -7.5298    4.5825    3.2851 H       1  LIG1        0.2922
     37 C         -11.8023    1.5001    0.8555 C.3     1  LIG1       -0.0390
     38 H         -11.9061    0.4817    1.1668 H       1  LIG1        0.0278
     39 H         -11.7182    1.5404   -0.2105 H       1  LIG1        0.0278
     40 H         -12.6609    2.0576    1.1668 H       1  LIG1        0.0278
     41 C         -11.9281    2.6696    3.2924 C.ar    1  LIG1        0.1517
     42 C         -12.3054    2.6880    4.6192 C.ar    1  LIG1        0.0857
     43 C         -13.7517    2.7583    4.6382 C.ar    1  LIG1        0.0783
     44 C         -14.1624    2.7784    3.3212 C.ar    1  LIG1        0.1092
     45 O         -13.0562    2.7247    2.4725 O.2     1  LIG1       -0.4604
     46 H         -15.3078    2.8342    2.7089 H       1  LIG1        0.1042
     47 C         -11.5354    2.6504    5.6659 C.1     1  LIG1       -0.0646
     48 C         -10.8240    2.6157    6.6331 C.1     1  LIG1       -0.1138
     49 H         -10.1902    2.5847    7.4947 H       1  LIG1        0.1232
     50 C         -14.4945    2.7945    5.7045 C.1     1  LIG1       -0.0653
     51 C         -15.1808    2.8279    6.6897 C.1     1  LIG1       -0.1138
     52 H         -15.7922    2.8577    7.5673 H       1  LIG1        0.1232
@<TRIPOS>BOND
     1    22    23    3
     2    23    18    1
     3    26    24    1
     4    25    24    1
     5    15    13    1
     6    11     9    1
     7    18    19   ar
     8    18    17   ar
     9    24    19    1
    10    34    32    1
    11    39    37    1
    12    19    20   ar
    13     7     3    1
    14    17     5    1
    15    17    21   ar
    16    13     4    1
    17    13    16    1
    18    13    14    1
    19     5     6   ar
    20     5     4   ar
    21     6     1   ar
    22     4     3   ar
    23     1     2   ar
    24     1     9    1
    25     3     2   ar
    26     2     8    1
    27     9    12    1
    28     9    10    1
    29    20    21   ar
    30    20    29    1
    31    32    29   ar
    32    32    33   ar
    33    37    40    1
    34    37    38    1
    35    37    33    1
    36    29    27   ar
    37    33    30   ar
    38    45    41   ar
    39    45    44   ar
    40    27    35    1
    41    27    28   ar
    42    30    28   ar
    43    30    41    1
    44    46    44    1
    45    35    36    1
    46    28    31    1
    47    41    42   ar
    48    44    43   ar
    49    42    43   ar
    50    42    47    1
    51    43    50    1
    52    47    48    3
    53    50    51    3
    54    48    49    1
    55    51    52    1
