@<TRIPOS>MOLECULE
mol_data/noopt/geoms/mol2/6ii6ii.out
 32 33 0 0 0
SMALL
GASTEIGER

@<TRIPOS>ATOM
      1 C          -4.5775   -2.0270    0.0001 C.ar    1  LIG1        0.0389
      2 C          -3.1706   -2.0270    0.0001 C.ar    1  LIG1       -0.0404
      3 C          -2.5039   -0.8004    0.0001 C.ar    1  LIG1       -0.0551
      4 C          -3.2580    0.3743   -0.0001 C.ar    1  LIG1       -0.0244
      5 C          -4.6612    0.2715   -0.0003 C.ar    1  LIG1        0.0759
      6 N          -5.3207   -0.9034   -0.0001 N.ar    1  LIG1       -0.2516
      7 H          -1.4054   -0.7607   -0.0009 H       1  LIG1        0.0621
      8 H          -2.5135   -3.1487    0.0004 H       1  LIG1        0.0635
      9 C          -5.2433   -3.1440    0.0002 C.3     1  LIG1       -0.0223
     10 H          -4.6754   -3.8976    0.5047 H       1  LIG1        0.0292
     11 H          -5.4259   -3.4505   -1.0086 H       1  LIG1        0.0292
     12 H          -6.1763   -3.0029    0.5046 H       1  LIG1        0.0292
     13 C          -2.6845    1.5413   -0.0003 C.3     1  LIG1       -0.0377
     14 H          -3.3112    2.2468    0.5041 H       1  LIG1        0.0278
     15 H          -2.5273    1.8613   -1.0092 H       1  LIG1        0.0278
     16 H          -1.7430    1.4761    0.5040 H       1  LIG1        0.0278
     17 C          -6.8088    1.2233   -0.0003 C.ar    1  LIG1        0.0474
     18 C          -5.4065    1.3366   -0.0004 C.ar    1  LIG1        0.0219
     19 C          -4.8408    2.6129   -0.0003 C.ar    1  LIG1       -0.0465
     20 C          -5.6871    3.7231   -0.0003 C.ar    1  LIG1       -0.0317
     21 C          -7.0774    3.5076   -0.0004 C.ar    1  LIG1        0.0308
     22 N          -7.6401    2.2834   -0.0003 N.ar    1  LIG1       -0.2592
     23 H          -3.7491    2.7410   -0.0014 H       1  LIG1        0.0628
     24 H          -7.9061    4.5092   -0.0003 H       1  LIG1        0.0832
     25 C          -7.3825    0.0563   -0.0003 C.3     1  LIG1       -0.0217
     26 H          -6.7558   -0.6491    0.5041 H       1  LIG1        0.0293
     27 H          -7.5398   -0.2638   -1.0091 H       1  LIG1        0.0293
     28 H          -8.3239    0.1217    0.5041 H       1  LIG1        0.0293
     29 C          -5.2094    4.9325   -0.0004 C.3     1  LIG1       -0.0383
     30 H          -5.8909    5.5852    0.5040 H       1  LIG1        0.0278
     31 H          -5.0784    5.2642   -1.0092 H       1  LIG1        0.0278
     32 H          -4.2658    4.9433    0.5040 H       1  LIG1        0.0278
@<TRIPOS>BOND
     1    31    29    1
     2    15    13    1
     3    27    25    1
     4    11     9    1
     5    23    19    1
     6     7     3    1
     7    18     5    1
     8    18    17   ar
     9    18    19   ar
    10    21    22   ar
    11    21    24    1
    12    21    20   ar
    13    29    20    1
    14    29    32    1
    15    29    30    1
    16     5     6   ar
    17     5     4   ar
    18    13     4    1
    19    13    16    1
    20    13    14    1
    21    17    25    1
    22    17    22   ar
    23    19    20   ar
    24    25    28    1
    25    25    26    1
    26     6     1   ar
    27     4     3   ar
    28     1     2   ar
    29     1     9    1
    30     3     2   ar
    31     2     8    1
    32     9    12    1
    33     9    10    1
