@<TRIPOS>MOLECULE
mol_data/noopt/geoms/mol2/6ii6ii6ii6ii.out
 62 65 0 0 0
SMALL
GASTEIGER

@<TRIPOS>ATOM
      1 C          -4.5775   -2.0270    0.0001 C.ar    1  LIG1        0.0389
      2 C          -3.1706   -2.0270    0.0001 C.ar    1  LIG1       -0.0404
      3 C          -2.5039   -0.8004    0.0001 C.ar    1  LIG1       -0.0551
      4 C          -3.2580    0.3743   -0.0001 C.ar    1  LIG1       -0.0244
      5 C          -4.6612    0.2715   -0.0003 C.ar    1  LIG1        0.0759
      6 N          -5.3207   -0.9034   -0.0001 N.ar    1  LIG1       -0.2516
      7 H          -1.4054   -0.7607   -0.0009 H       1  LIG1        0.0621
      8 H          -2.5135   -3.1487    0.0004 H       1  LIG1        0.0635
      9 C          -5.2433   -3.1440    0.0002 C.3     1  LIG1       -0.0223
     10 H          -4.6754   -3.8976    0.5047 H       1  LIG1        0.0292
     11 H          -5.4259   -3.4505   -1.0086 H       1  LIG1        0.0292
     12 H          -6.1763   -3.0029    0.5046 H       1  LIG1        0.0292
     13 C          -2.6845    1.5413   -0.0003 C.3     1  LIG1       -0.0377
     14 H          -3.3112    2.2468    0.5041 H       1  LIG1        0.0278
     15 H          -2.5273    1.8613   -1.0092 H       1  LIG1        0.0278
     16 H          -1.7430    1.4761    0.5040 H       1  LIG1        0.0278
     17 C          -6.8088    1.2233   -0.0003 C.ar    1  LIG1        0.0481
     18 C          -5.4065    1.3366   -0.0004 C.ar    1  LIG1        0.0219
     19 C          -4.8408    2.6129   -0.0003 C.ar    1  LIG1       -0.0459
     20 C          -5.6871    3.7231   -0.0003 C.ar    1  LIG1       -0.0238
     21 C          -7.0774    3.5076   -0.0004 C.ar    1  LIG1        0.0759
     22 N          -7.6401    2.2834   -0.0003 N.ar    1  LIG1       -0.2509
     23 H          -3.7491    2.7410   -0.0014 H       1  LIG1        0.0628
     24 C          -7.3825    0.0563   -0.0003 C.3     1  LIG1       -0.0217
     25 H          -6.7558   -0.6491    0.5041 H       1  LIG1        0.0293
     26 H          -7.5398   -0.2638   -1.0091 H       1  LIG1        0.0293
     27 H          -8.3239    0.1217    0.5041 H       1  LIG1        0.0293
     28 C          -5.2094    4.9325   -0.0004 C.3     1  LIG1       -0.0377
     29 H          -5.8909    5.5852    0.5040 H       1  LIG1        0.0278
     30 H          -5.0784    5.2642   -1.0092 H       1  LIG1        0.0278
     31 H          -4.2658    4.9433    0.5040 H       1  LIG1        0.0278
     32 C          -9.2948    4.2833   -0.0001 C.ar    1  LIG1        0.0481
     33 C          -7.9061    4.5092   -0.0003 C.ar    1  LIG1        0.0219
     34 C          -7.4450    5.8270   -0.0001 C.ar    1  LIG1       -0.0459
     35 C          -8.3780    6.8653    0.0002 C.ar    1  LIG1       -0.0238
     36 C          -9.7465    6.5385    0.0002 C.ar    1  LIG1        0.0759
     37 N         -10.2087    5.2730    0.0002 N.ar    1  LIG1       -0.2509
     38 H          -6.3672    6.0425   -0.0012 H       1  LIG1        0.0628
     39 C          -9.7725    3.0739   -0.0002 C.3     1  LIG1       -0.0217
     40 H          -9.0910    2.4212    0.5042 H       1  LIG1        0.0293
     41 H          -9.9035    2.7422   -1.0090 H       1  LIG1        0.0293
     42 H         -10.7161    3.0632    0.5042 H       1  LIG1        0.0293
     43 C          -7.9993    8.1093    0.0002 C.3     1  LIG1       -0.0377
     44 H          -8.7311    8.7049    0.5046 H       1  LIG1        0.0278
     45 H          -7.8954    8.4505   -1.0087 H       1  LIG1        0.0278
     46 H          -7.0596    8.1960    0.5046 H       1  LIG1        0.0278
     47 C         -12.0191    7.1331    0.0008 C.ar    1  LIG1        0.0474
     48 C         -10.6531    7.4702    0.0005 C.ar    1  LIG1        0.0219
     49 C         -10.2997    8.8208    0.0008 C.ar    1  LIG1       -0.0465
     50 C         -11.3132    9.7806    0.0012 C.ar    1  LIG1       -0.0317
     51 C         -12.6510    9.3446    0.0013 C.ar    1  LIG1        0.0308
     52 N         -13.0098    8.0460    0.0012 N.ar    1  LIG1       -0.2592
     53 H          -9.2427    9.1225   -0.0004 H       1  LIG1        0.0628
     54 H         -13.6297   10.2002    0.0018 H       1  LIG1        0.0832
     55 C         -12.3979    5.8892    0.0006 C.3     1  LIG1       -0.0217
     56 H         -11.6660    5.2934    0.5050 H       1  LIG1        0.0293
     57 H         -12.5017    5.5481   -1.0083 H       1  LIG1        0.0293
     58 H         -13.3376    5.8025    0.5049 H       1  LIG1        0.0293
     59 C         -11.0360   11.0510    0.0014 C.3     1  LIG1       -0.0383
     60 H         -11.8135   11.5857    0.5058 H       1  LIG1        0.0278
     61 H         -10.9599   11.3996   -1.0074 H       1  LIG1        0.0278
     62 H         -10.1063   11.2131    0.5058 H       1  LIG1        0.0278
@<TRIPOS>BOND
     1    30    28    1
     2    15    13    1
     3    26    24    1
     4    41    39    1
     5    45    43    1
     6    11     9    1
     7    57    55    1
     8    61    59    1
     9    23    19    1
    10    38    34    1
    11     7     3    1
    12    53    49    1
    13    18     5    1
    14    18    17   ar
    15    18    19   ar
    16    21    22   ar
    17    21    33    1
    18    21    20   ar
    19    28    20    1
    20    28    31    1
    21    28    29    1
    22     5     6   ar
    23     5     4   ar
    24    13     4    1
    25    13    16    1
    26    13    14    1
    27    17    24    1
    28    17    22   ar
    29    19    20   ar
    30    24    27    1
    31    24    25    1
    32    33    32   ar
    33    33    34   ar
    34    39    32    1
    35    39    42    1
    36    39    40    1
    37     6     1   ar
    38     4     3   ar
    39    32    37   ar
    40    34    35   ar
    41     1     2   ar
    42     1     9    1
    43     3     2   ar
    44     2     8    1
    45    37    36   ar
    46    36    35   ar
    47    36    48    1
    48    35    43    1
    49    43    46    1
    50    43    44    1
    51     9    12    1
    52     9    10    1
    53    48    47   ar
    54    48    49   ar
    55    55    47    1
    56    55    58    1
    57    55    56    1
    58    47    52   ar
    59    49    50   ar
    60    52    51   ar
    61    50    51   ar
    62    50    59    1
    63    51    54    1
    64    59    62    1
    65    59    60    1
