@<TRIPOS>MOLECULE
mol_data/noopt/geoms/mol2/6ii6hf6fe6ha-.out
 52 55 0 0 0
SMALL
GASTEIGER

@<TRIPOS>ATOM
      1 C          -4.5775   -2.0270    0.0001 C.ar    1  LIG1        0.0389
      2 C          -3.1706   -2.0270    0.0001 C.ar    1  LIG1       -0.0404
      3 C          -2.5039   -0.8004    0.0001 C.ar    1  LIG1       -0.0551
      4 C          -3.2580    0.3743   -0.0001 C.ar    1  LIG1       -0.0243
      5 C          -4.6612    0.2715   -0.0003 C.ar    1  LIG1        0.0775
      6 N          -5.3207   -0.9034   -0.0001 N.ar    1  LIG1       -0.2515
      7 H          -1.4054   -0.7607   -0.0009 H       1  LIG1        0.0621
      8 H          -2.5135   -3.1487    0.0004 H       1  LIG1        0.0635
      9 C          -5.2433   -3.1440    0.0002 C.3     1  LIG1       -0.0223
     10 H          -4.6754   -3.8976    0.5047 H       1  LIG1        0.0292
     11 H          -5.4259   -3.4505   -1.0086 H       1  LIG1        0.0292
     12 H          -6.1763   -3.0029    0.5046 H       1  LIG1        0.0292
     13 C          -2.6845    1.5413   -0.0003 C.3     1  LIG1       -0.0377
     14 H          -3.3112    2.2468    0.5041 H       1  LIG1        0.0278
     15 H          -2.5273    1.8613   -1.0092 H       1  LIG1        0.0278
     16 H          -1.7430    1.4761    0.5040 H       1  LIG1        0.0278
     17 C          -6.8088    1.2233   -0.0003 C.ar    1  LIG1        0.1263
     18 C          -5.4065    1.3366   -0.0004 C.ar    1  LIG1        0.0436
     19 C          -4.8408    2.6129   -0.0003 C.ar    1  LIG1       -0.0056
     20 C          -5.6871    3.7231   -0.0003 C.ar    1  LIG1        0.1436
     21 C          -7.0774    3.5076   -0.0004 C.ar    1  LIG1        0.1195
     22 N          -7.6401    2.2834   -0.0003 N.ar    1  LIG1       -0.2279
     23 H          -3.7491    2.7410   -0.0014 H       1  LIG1        0.0662
     24 N          -7.3823    0.0566   -0.0003 N.pl3   1  LIG1       -0.3426
     25 H          -8.2621    0.1177   -0.4717 H       1  LIG1        0.1437
     26 H          -6.7967   -0.6027   -0.4717 H       1  LIG1        0.1437
     27 O          -5.2095    4.9322   -0.0004 O.3     1  LIG1       -0.5046
     28 H          -5.9335    5.5627   -0.0004 H       1  LIG1        0.2922
     29 C          -9.2948    4.2833   -0.0001 C.ar    1  LIG1        0.2225
     30 C          -7.9061    4.5092   -0.0003 C.ar    1  LIG1        0.0665
     31 C          -7.4450    5.8270   -0.0001 C.ar    1  LIG1       -0.0298
     32 C          -8.3780    6.8653    0.0002 C.ar    1  LIG1        0.0516
     33 C          -9.7465    6.5385    0.0002 C.ar    1  LIG1        0.0934
     34 N         -10.2087    5.2730    0.0002 N.ar    1  LIG1       -0.2111
     35 H          -6.3672    6.0425   -0.0012 H       1  LIG1        0.0639
     36 O          -9.7724    3.0742   -0.0002 O.3     1  LIG1       -0.4919
     37 H          -9.0485    2.4437   -0.0002 H       1  LIG1        0.2937
     38 C          -7.9994    8.1090    0.0002 C.1     1  LIG1       -0.0675
     39 C          -7.6495    9.2581    0.0002 C.1     1  LIG1       -0.1138
     40 H          -7.3379   10.2817    0.0002 H       1  LIG1        0.1232
     41 C         -12.0189    7.1333   -0.0204 C.ar    1  LIG1        0.1254
     42 C         -10.6531    7.4702    0.0005 C.ar    1  LIG1        0.0412
     43 C         -10.2998    8.8206    0.0216 C.ar    1  LIG1       -0.0478
     44 C         -11.3134    9.7805    0.0211 C.ar    1  LIG1       -0.0428
     45 C         -12.6509    9.3447   -0.0008 C.ar    1  LIG1        0.0297
     46 N         -13.0097    8.0461   -0.0212 N.ar    1  LIG1       -0.2401
     47 H          -9.2429    9.1222    0.0373 H       1  LIG1        0.0626
     48 H         -13.6297   10.2002   -0.0022 H       1  LIG1        0.0830
     49 N         -12.3975    5.8897   -0.0404 N.pl3   1  LIG1       -0.3426
     50 H         -13.2736    5.8157   -0.5169 H       1  LIG1        0.1437
     51 H         -11.7114    5.3401   -0.5170 H       1  LIG1        0.1437
     52 H         -11.0363   11.0505    0.0401 H       1  LIG1        0.0633
@<TRIPOS>BOND
     1    15    13    1
     2    11     9    1
     3    51    49    1
     4    50    49    1
     5    26    24    1
     6    25    24    1
     7    49    41    1
     8    46    41   ar
     9    46    45   ar
    10    41    42   ar
    11    48    45    1
    12    23    19    1
    13    35    31    1
    14     7     3    1
    15    45    44   ar
    16    18     5    1
    17    18    17   ar
    18    18    19   ar
    19    28    27    1
    20    21    22   ar
    21    21    30    1
    22    21    20   ar
    23    27    20    1
    24    13     4    1
    25    13    16    1
    26    13    14    1
    27     5     6   ar
    28     5     4   ar
    29    17    24    1
    30    17    22   ar
    31    19    20   ar
    32    30    29   ar
    33    30    31   ar
    34    37    36    1
    35    36    29    1
    36     6     1   ar
    37     4     3   ar
    38    29    34   ar
    39    31    32   ar
    40     1     2   ar
    41     1     9    1
    42     2     3   ar
    43     2     8    1
    44    34    33   ar
    45    33    32   ar
    46    33    42    1
    47    32    38    1
    48    38    39    3
    49     9    12    1
    50     9    10    1
    51    39    40    1
    52    42    43   ar
    53    44    43   ar
    54    44    52    1
    55    43    47    1
