@<TRIPOS>MOLECULE
mol_data/noopt/geoms/mol2/6il12dl(300)6ed(210)6dl(110).out
 56 59 0 0 0
SMALL
GASTEIGER

@<TRIPOS>ATOM
      1 C          -4.5775   -2.0270    0.0001 C.ar    1  LIG1        0.0393
      2 C          -3.1706   -2.0270    0.0001 C.ar    1  LIG1       -0.0372
      3 C          -2.5039   -0.8004    0.0001 C.ar    1  LIG1       -0.0160
      4 C          -3.2580    0.3743   -0.0001 C.ar    1  LIG1        0.1490
      5 C          -4.6612    0.2715   -0.0003 C.ar    1  LIG1        0.1491
      6 N          -5.3207   -0.9034   -0.0001 N.ar    1  LIG1       -0.2450
      7 H          -1.4054   -0.7607   -0.0009 H       1  LIG1        0.0655
      8 H          -2.5135   -3.1487    0.0004 H       1  LIG1        0.0636
      9 C          -5.2433   -3.1440    0.0002 C.3     1  LIG1       -0.0223
     10 H          -4.6754   -3.8976    0.5047 H       1  LIG1        0.0292
     11 H          -5.4259   -3.4505   -1.0086 H       1  LIG1        0.0292
     12 H          -6.1763   -3.0029    0.5046 H       1  LIG1        0.0292
     13 O          -2.6846    1.5410   -0.0003 O.3     1  LIG1       -0.4929
     14 C          -1.2643    1.3748   -0.0004 C.3     1  LIG1        0.0789
     15 H          -0.7927    2.3353   -0.0008 H       1  LIG1        0.0660
     16 H          -0.9685    0.8326    0.8734 H       1  LIG1        0.0660
     17 H          -0.9687    0.8321   -0.8739 H       1  LIG1        0.0660
     18 C          -5.4065    1.3366   -0.0004 C.ar    1  LIG1        0.1784
     19 C          -5.5341    2.4475   -0.8083 C.ar    1  LIG1        0.1412
     20 C          -6.5762    3.2668   -0.2255 C.ar    1  LIG1        0.1838
     21 C          -7.0166    2.6018    0.9003 C.ar    1  LIG1        0.1812
     22 O          -6.3107    1.4089    1.0602 O.2     1  LIG1       -0.4479
     23 N          -4.2725    2.9768   -2.8366 N.1     1  LIG1       -0.1906
     24 C          -4.8637    2.7288   -1.8860 C.1     1  LIG1        0.1068
     25 O          -6.9961    4.4047   -0.6934 O.3     1  LIG1       -0.4901
     26 C          -5.8856    5.2891   -0.8652 C.3     1  LIG1        0.0790
     27 H          -6.2317    6.2254   -1.2505 H       1  LIG1        0.0660
     28 H          -5.4060    5.4470    0.0782 H       1  LIG1        0.0660
     29 H          -5.1882    4.8567   -1.5519 H       1  LIG1        0.0660
     30 C          -7.7299    3.8636    2.7490 C.ar    1  LIG1        0.1246
     31 C          -7.9105    2.8248    1.8175 C.ar    1  LIG1        0.0560
     32 C          -9.0661    2.0460    1.9031 C.ar    1  LIG1       -0.0288
     33 C          -9.9938    2.3283    2.9072 C.ar    1  LIG1        0.0785
     34 C          -9.7238    3.3883    3.7922 C.ar    1  LIG1        0.0926
     35 N          -8.6144    4.1498    3.7239 N.ar    1  LIG1       -0.2363
     36 H          -9.2413    1.2250    1.1935 H       1  LIG1        0.0639
     37 C          -6.6704    4.6159    2.7098 C.1     1  LIG1       -0.0491
     38 C          -5.6914    5.3110    2.6736 C.1     1  LIG1       -0.1124
     39 H          -4.8194    5.9303    2.6413 H       1  LIG1        0.1232
     40 N         -12.0474    1.0184    3.1364 N.1     1  LIG1       -0.1908
     41 C         -11.0850    1.6323    3.0290 C.1     1  LIG1        0.1013
     42 C         -11.6565    4.5292    4.4861 C.ar    1  LIG1        0.1494
     43 C         -10.5571    3.6897    4.7434 C.ar    1  LIG1        0.0409
     44 C         -10.3861    3.1926    6.0367 C.ar    1  LIG1       -0.0065
     45 C         -11.3104    3.5476    7.0207 C.ar    1  LIG1        0.1388
     46 C         -12.3774    4.3933    6.6660 C.ar    1  LIG1        0.0707
     47 N         -12.5576    4.8818    5.4233 N.ar    1  LIG1       -0.2403
     48 H          -9.5385    2.5348    6.2757 H       1  LIG1        0.0662
     49 H         -13.2636    4.7518    7.5469 H       1  LIG1        0.0867
     50 N         -12.0358    5.4466    2.2500 N.1     1  LIG1       -0.1893
     51 C         -11.8580    5.0166    3.2980 C.1     1  LIG1        0.1198
     52 O         -11.1951    3.1112    8.2399 O.3     1  LIG1       -0.4936
     53 C         -12.4560    2.6066    8.6874 C.3     1  LIG1        0.0789
     54 H         -12.3607    2.2473    9.6908 H       1  LIG1        0.0660
     55 H         -13.1848    3.3895    8.6567 H       1  LIG1        0.0660
     56 H         -12.7663    1.8054    8.0497 H       1  LIG1        0.0660
@<TRIPOS>BOND
     1    23    24    3
     2    24    19    1
     3    29    26    1
     4    27    26    1
     5    11     9    1
     6    17    14    1
     7    26    25    1
     8    26    28    1
     9    19    20   ar
    10    19    18   ar
    11    25    20    1
    12    20    21   ar
    13     7     3    1
    14    15    14    1
    15    14    13    1
    16    14    16    1
    17    18     5    1
    18    18    22   ar
    19     5     6   ar
    20     5     4   ar
    21    13     4    1
    22     6     1   ar
    23     4     3   ar
    24     1     2   ar
    25     1     9    1
    26     3     2   ar
    27     2     8    1
    28     9    12    1
    29     9    10    1
    30    21    22   ar
    31    21    31    1
    32    36    32    1
    33    31    32   ar
    34    31    30   ar
    35    32    33   ar
    36    50    51    3
    37    39    38    1
    38    38    37    3
    39    37    30    1
    40    30    35   ar
    41    33    41    1
    42    33    34   ar
    43    41    40    3
    44    51    42    1
    45    35    34   ar
    46    34    43    1
    47    42    43   ar
    48    42    47   ar
    49    43    44   ar
    50    47    46   ar
    51    44    48    1
    52    44    45   ar
    53    46    45   ar
    54    46    49    1
    55    45    52    1
    56    56    53    1
    57    52    53    1
    58    55    53    1
    59    53    54    1
