@<TRIPOS>MOLECULE
mol_data/noopt/geoms/mol2/6il13ad4de12di.out
 51 55 0 0 0
SMALL
GASTEIGER

@<TRIPOS>ATOM
      1 C          -4.5775   -2.0270    0.0001 C.ar    1  LIG1        0.0392
      2 C          -3.1706   -2.0270    0.0001 C.ar    1  LIG1       -0.0372
      3 C          -2.5039   -0.8004    0.0001 C.ar    1  LIG1       -0.0161
      4 C          -3.2580    0.3743   -0.0001 C.ar    1  LIG1        0.1474
      5 C          -4.6612    0.2715   -0.0003 C.ar    1  LIG1        0.1288
      6 N          -5.3207   -0.9034   -0.0001 N.ar    1  LIG1       -0.2467
      7 H          -1.4054   -0.7607   -0.0009 H       1  LIG1        0.0655
      8 H          -2.5135   -3.1487    0.0004 H       1  LIG1        0.0636
      9 C          -5.2433   -3.1440    0.0002 C.3     1  LIG1       -0.0223
     10 H          -4.6754   -3.8976    0.5047 H       1  LIG1        0.0292
     11 H          -5.4259   -3.4505   -1.0086 H       1  LIG1        0.0292
     12 H          -6.1763   -3.0029    0.5046 H       1  LIG1        0.0292
     13 O          -2.6846    1.5410   -0.0003 O.3     1  LIG1       -0.4929
     14 C          -1.2643    1.3748   -0.0004 C.3     1  LIG1        0.0789
     15 H          -0.7927    2.3353   -0.0008 H       1  LIG1        0.0660
     16 H          -0.9685    0.8326    0.8734 H       1  LIG1        0.0660
     17 H          -0.9687    0.8321   -0.8739 H       1  LIG1        0.0660
     18 C          -5.4065    1.3366   -0.0004 C.ar    1  LIG1        0.0693
     19 C          -5.0646    2.6523   -0.0008 C.ar    1  LIG1       -0.0290
     20 C          -6.2797    3.4100    0.0004 C.ar    1  LIG1        0.0061
     21 C          -7.3108    2.5240   -0.0003 C.ar    1  LIG1        0.0525
     22 N          -6.7806    1.2535   -0.0003 N.ar    1  LIG1       -0.3526
     23 H          -7.3066    0.4100   -0.0008 H       1  LIG1        0.1660
     24 H          -3.8559    3.1308   -0.0007 H       1  LIG1        0.0643
     25 N          -6.4724    5.8490    0.0023 N.3     1  LIG1       -0.1262
     26 C          -6.3821    4.7060    0.0014 C.3     1  LIG1        0.1365
     27 C          -9.1008    4.0405    0.0012 C.ar    1  LIG1       -0.0100
     28 C         -10.4995    4.2045    0.0033 C.ar    1  LIG1       -0.0440
     29 C          -8.5952    2.7244    0.0002 C.ar    1  LIG1        0.0050
     30 C         -11.3587    3.1080    0.0036 C.ar    1  LIG1        0.0343
     31 H         -10.9108    5.2115    0.0043 H       1  LIG1        0.0628
     32 C          -9.4525    1.6294    0.0006 C.ar    1  LIG1       -0.0362
     33 C         -10.8392    1.8129    0.0022 C.ar    1  LIG1        0.0360
     34 H          -9.0382    0.6244   -0.0001 H       1  LIG1        0.0637
     35 N          -7.6884    6.0383    0.0002 N.3     1  LIG1       -0.1262
     36 C          -8.3503    5.1021    0.0007 C.3     1  LIG1        0.1351
     37 C         -11.6357    0.7855    0.0027 C.1     1  LIG1       -0.0689
     38 C         -12.3717   -0.1638    0.0032 C.1     1  LIG1       -0.1139
     39 H         -13.0273   -1.0094    0.0036 H       1  LIG1        0.1232
     40 C         -12.6450    3.2960    0.0054 C.ar    1  LIG1        0.1535
     41 C         -13.4782    4.3954    0.0216 C.ar    1  LIG1        0.1003
     42 C         -14.8345    3.8881    0.0126 C.ar    1  LIG1        0.0053
     43 C         -14.7401    2.5118   -0.0085 C.ar    1  LIG1        0.0967
     44 O         -13.4002    2.1225   -0.0134 O.2     1  LIG1       -0.4613
     45 H         -15.5868    1.5254   -0.0243 H       1  LIG1        0.1032
     46 N         -12.8405    6.7571    0.0585 N.1     1  LIG1       -0.1907
     47 C         -13.1394    5.6503    0.0412 C.1     1  LIG1        0.1032
     48 C         -15.9145    4.6122    0.0228 C.3     1  LIG1       -0.0355
     49 H         -16.6940    4.0831    0.5300 H       1  LIG1        0.0279
     50 H         -16.2173    4.8152   -0.9832 H       1  LIG1        0.0279
     51 H         -15.7208    5.5343    0.5299 H       1  LIG1        0.0279
@<TRIPOS>BOND
     1    11     9    1
     2    50    48    1
     3    17    14    1
     4    45    43    1
     5    44    43   ar
     6    44    40   ar
     7    43    42   ar
     8     7     3    1
     9    19    24    1
    10    19    18   ar
    11    19    20   ar
    12    23    22    1
    13    15    14    1
    14    14    13    1
    15    14    16    1
    16    18     5    1
    17    18    22   ar
    18    13     4    1
    19     5     6   ar
    20     5     4   ar
    21    22    21   ar
    22    21    29    1
    23    21    20   ar
    24    34    32    1
    25     6     1   ar
    26     4     3   ar
    27     1     2   ar
    28     1     9    1
    29     3     2   ar
    30     2     8    1
    31     9    12    1
    32     9    10    1
    33    29    32   ar
    34    29    27   ar
    35    35    36    1
    36    35    25    1
    37    20    26    1
    38    32    33   ar
    39    36    27    1
    40    27    28   ar
    41    26    25    1
    42    33    37    1
    43    33    30   ar
    44    37    38    3
    45    38    39    1
    46    28    30   ar
    47    28    31    1
    48    30    40    1
    49    40    41   ar
    50    42    41   ar
    51    42    48    1
    52    41    47    1
    53    48    51    1
    54    48    49    1
    55    47    46    3
