@<TRIPOS>MOLECULE
mol_data/noopt/geoms/mol2/6il13ie-6id4he.out
 58 59 0 0 0
SMALL
GASTEIGER

@<TRIPOS>ATOM
      1 C          -4.5775   -2.0270    0.0001 C.ar    1  LIG1        0.0392
      2 C          -3.1706   -2.0270    0.0001 C.ar    1  LIG1       -0.0370
      3 C          -2.5039   -0.8004    0.0001 C.ar    1  LIG1       -0.0110
      4 C          -3.2580    0.3743   -0.0001 C.ar    1  LIG1        0.2062
      5 C          -4.6612    0.2715   -0.0003 C.ar    1  LIG1        0.1341
      6 N          -5.3207   -0.9034   -0.0001 N.ar    1  LIG1       -0.2466
      7 H          -1.4054   -0.7607   -0.0009 H       1  LIG1        0.0657
      8 H          -2.5135   -3.1487    0.0004 H       1  LIG1        0.0636
      9 C          -5.2433   -3.1440    0.0002 C.3     1  LIG1       -0.0223
     10 H          -4.6754   -3.8976    0.5047 H       1  LIG1        0.0292
     11 H          -5.4259   -3.4505   -1.0086 H       1  LIG1        0.0292
     12 H          -6.1763   -3.0029    0.5046 H       1  LIG1        0.0292
     13 O          -2.6846    1.5410   -0.0003 O.3     1  LIG1       -0.2856
     14 C          -1.2643    1.3748   -0.0004 C.3     2  LIG2       -0.0681
     15 H          -0.7927    2.3353   -0.0008 H       1  LIG1        0.0227
     16 H          -0.9685    0.8326    0.8734 H       1  LIG1        0.0227
     17 H          -0.9687    0.8321   -0.8739 H       1  LIG1        0.0227
     18 C          -5.4065    1.3366   -0.0004 C.ar    1  LIG1        0.0733
     19 C          -5.0647    2.6523    0.0158 C.ar    1  LIG1       -0.0076
     20 C          -6.2798    3.4100    0.0080 C.ar    1  LIG1        0.0535
     21 C          -7.3107    2.5241   -0.0144 C.ar    1  LIG1        0.0645
     22 N          -6.7805    1.2536   -0.0191 N.ar    1  LIG1       -0.3516
     23 H          -7.3063    0.4102   -0.0343 H       1  LIG1        0.1660
     24 C          -3.8558    3.1307    0.0362 C.3     1  LIG1       -0.0365
     25 H          -3.8531    4.0714    0.5462 H       1  LIG1        0.0279
     26 H          -3.5095    3.2679   -0.9669 H       1  LIG1        0.0279
     27 H          -3.2101    2.4467    0.5461 H       1  LIG1        0.0279
     28 C          -6.3823    4.7059    0.0196 C.1     1  LIG1       -0.0673
     29 C          -6.4769    5.9033    0.0303 C.1     1  LIG1       -0.1138
     30 H          -6.5613    6.9699    0.0399 H       1  LIG1        0.1232
     31 C          -9.4849    1.6348   -0.0368 C.ar    1  LIG1        0.0480
     32 C          -8.5951    2.7246   -0.0290 C.ar    1  LIG1        0.0208
     33 C          -9.1234    4.0168   -0.0369 C.ar    1  LIG1       -0.0454
     34 C         -10.5102    4.1757   -0.0524 C.ar    1  LIG1       -0.0164
     35 C         -11.3180    3.0238   -0.0594 C.ar    1  LIG1        0.0766
     36 N         -10.8252    1.7698   -0.0517 N.ar    1  LIG1       -0.2509
     37 H          -8.4594    4.8927   -0.0322 H       1  LIG1        0.0628
     38 C          -9.0409    0.4127   -0.0298 C.3     1  LIG1       -0.0217
     39 H          -8.0989    0.3783    0.4766 H       1  LIG1        0.0293
     40 H          -8.9171    0.0724   -1.0367 H       1  LIG1        0.0293
     41 H          -9.7412   -0.2183    0.4765 H       1  LIG1        0.0293
     42 N         -11.5282    6.4003   -0.0676 N.3     3  LIG3        0.0000
     43 C         -11.0511    5.3577   -0.0605 C.3     1  LIG1        0.0011
     44 C         -13.2241    4.3913   -0.0807 C.ar    1  LIG1        0.0536
     45 C         -14.6315    4.4422   -0.0947 C.ar    1  LIG1       -0.0376
     46 C         -12.6143    3.1202   -0.0737 C.ar    1  LIG1        0.0241
     47 C         -15.3996    3.2801   -0.1021 C.ar    1  LIG1       -0.0445
     48 H         -15.1225    5.4127   -0.1001 H       1  LIG1        0.0637
     49 C         -13.3807    1.9597   -0.0811 C.ar    1  LIG1       -0.0353
     50 C         -14.7775    2.0310   -0.0954 C.ar    1  LIG1        0.0254
     51 H         -12.8869    0.9913   -0.0754 H       1  LIG1        0.0637
     52 H         -16.6969    3.3639   -0.1151 H       1  LIG1        0.0630
     53 N         -12.5616    5.5098   -0.0747 N.pl3   1  LIG1       -0.2659
     54 H         -11.6881    5.3823   -0.5445 H       1  LIG1        0.0362
     55 H         -13.0931    6.2146   -0.5446 H       1  LIG1        0.1699
     56 C         -15.4888    0.9428   -0.1020 C.1     1  LIG1       -0.0696
     57 C         -16.1459   -0.0627   -0.1082 C.1     1  LIG1       -0.1139
     58 H         -16.7313   -0.9583   -0.1137 H       1  LIG1        0.1232
@<TRIPOS>BOND
     1    40    38    1
     2    11     9    1
     3    26    24    1
     4    17    14    1
     5    55    53    1
     6    54    43    1
     7    52    47    1
     8    58    57    1
     9    57    56    3
    10    47    50   ar
    11    47    45   ar
    12    56    50    1
    13    48    45    1
    14    50    49   ar
    15    45    44   ar
    16    49    51    1
    17    49    46   ar
    18    44    53    1
    19    44    46   ar
    20    46    35    1
    21    43    34    1
    22    35    34   ar
    23    35    36   ar
    24    34    33   ar
    25    36    31   ar
    26    33    37    1
    27    33    32   ar
    28    31    38    1
    29    31    32   ar
    30    23    22    1
    31    38    41    1
    32    38    39    1
    33    32    21    1
    34    22    21   ar
    35    22    18   ar
    36    21    20   ar
    37     7     3    1
    38    15    14    1
    39    14    16    1
    40    18     5    1
    41    18    19   ar
    42    13     4    1
    43     5     6   ar
    44     5     4   ar
    45     6     1   ar
    46     4     3   ar
    47     1     2   ar
    48     1     9    1
    49     2     3   ar
    50     2     8    1
    51     9    12    1
    52     9    10    1
    53    20    19   ar
    54    20    28    1
    55    19    24    1
    56    28    29    3
    57    29    30    1
    58    24    27    1
    59    24    25    1
