@<TRIPOS>MOLECULE
mol_data/noopt/geoms/mol2/6il4lh(340)4hh(30)13da(160).out
 57 58 0 0 0
SMALL
GASTEIGER

@<TRIPOS>ATOM
      1 C          -4.5775   -2.0270    0.0001 C.ar    1  LIG1        0.0390
      2 C          -3.1706   -2.0270    0.0001 C.ar    1  LIG1       -0.0400
      3 C          -2.5039   -0.8004    0.0001 C.ar    1  LIG1       -0.0502
      4 C          -3.2580    0.3743   -0.0001 C.ar    1  LIG1        0.0103
      5 C          -4.6612    0.2715   -0.0003 C.ar    1  LIG1        0.0827
      6 N          -5.3207   -0.9034   -0.0001 N.ar    1  LIG1       -0.2511
      7 H          -1.4054   -0.7607   -0.0009 H       1  LIG1        0.0625
      8 H          -2.5135   -3.1487    0.0004 H       1  LIG1        0.0636
      9 C          -5.2433   -3.1440    0.0002 C.3     1  LIG1       -0.0223
     10 H          -4.6754   -3.8976    0.5047 H       1  LIG1        0.0292
     11 H          -5.4259   -3.4505   -1.0086 H       1  LIG1        0.0292
     12 H          -6.1763   -3.0029    0.5046 H       1  LIG1        0.0292
     13 O          -2.6846    1.5410   -0.0003 O.3     1  LIG1       -0.3928
     14 C          -1.2643    1.3748   -0.0004 C.3     2  LIG2       -0.0681
     15 H          -0.7927    2.3353   -0.0008 H       2  LIG2        0.0227
     16 H          -0.9685    0.8326    0.8734 H       2  LIG2        0.0227
     17 H          -0.9687    0.8321   -0.8739 H       2  LIG2        0.0227
     18 C          -4.8678    2.5708   -0.4178 C.ar    1  LIG1        0.1888
     19 C          -5.7155    3.6953   -0.3982 C.ar    1  LIG1       -0.0048
     20 C          -5.4065    1.3366   -0.0004 C.ar    1  LIG1        0.0493
     21 C          -7.0414    3.5973    0.0177 C.ar    1  LIG1        0.0082
     22 H          -5.3201    4.6574   -0.7160 H       1  LIG1        0.0663
     23 C          -6.7301    1.2383    0.4149 C.ar    1  LIG1       -0.0276
     24 C          -7.5565    2.3667    0.4269 C.ar    1  LIG1        0.0333
     25 H          -7.1221    0.2753    0.7322 H       1  LIG1        0.0644
     26 O          -3.6400    2.7247   -0.8164 O.3     1  LIG1       -0.2872
     27 C          -3.0216    1.4437   -0.9627 C.3     1  LIG1        0.0673
     28 H          -2.0111    1.5708   -1.2909 H       1  LIG1        0.0580
     29 H          -3.0296    0.9341   -0.0218 H       1  LIG1        0.2095
     30 H          -3.5613    0.8675   -1.6849 H       1  LIG1        0.0580
     31 N          -8.7930    2.2688    0.8163 N.pl3   1  LIG1       -0.3575
     32 H          -9.3152    3.0465    0.4664 H       1  LIG1        0.1423
     33 H          -9.1863    1.4186    0.4664 H       1  LIG1        0.1423
     34 C          -7.3405    5.8401    0.6379 C.ar    1  LIG1        0.0332
     35 C          -8.1959    6.9586    0.6183 C.ar    1  LIG1       -0.0295
     36 C          -7.7960    4.6558    0.0232 C.ar    1  LIG1        0.0064
     37 C          -9.4496    6.9030    0.0134 C.ar    1  LIG1        0.0219
     38 H          -7.8643    7.8824    1.0871 H       1  LIG1        0.0643
     39 C          -9.0474    4.5998   -0.5809 C.ar    1  LIG1       -0.0309
     40 C          -9.8825    5.7218   -0.5903 C.ar    1  LIG1        0.0345
     41 H          -9.3760    3.6749   -1.0482 H       1  LIG1        0.0643
     42 N          -6.1824    5.9531    1.2175 N.pl3   1  LIG1       -0.3575
     43 H          -5.5969    5.1899    0.9441 H       1  LIG1        0.1423
     44 H          -5.7555    6.8151    0.9441 H       1  LIG1        0.1423
     45 N         -11.0514    5.6635   -1.1564 N.pl3   1  LIG1       -0.3574
     46 H         -11.1868    6.4742   -1.7259 H       1  LIG1        0.1423
     47 H         -11.1053    4.8433   -1.7259 H       1  LIG1        0.1423
     48 C         -10.2136    7.9548    0.0136 C.ar    1  LIG1        0.0659
     49 C         -11.5254    8.0919    0.3428 C.ar    1  LIG1        0.0770
     50 C         -11.8695    9.4704    0.1635 C.ar    1  LIG1       -0.0264
     51 C         -10.7524   10.1153   -0.2656 C.ar    1  LIG1        0.0034
     52 N          -9.7364    9.1911   -0.3592 N.ar    1  LIG1       -0.3596
     53 H          -8.8057    9.3857   -0.6492 H       1  LIG1        0.1654
     54 H         -10.5627   11.3664   -0.5637 H       1  LIG1        0.0807
     55 N         -13.0184    6.3071    1.0986 N.1     1  LIG1       -0.1908
     56 C         -12.3187    7.1436    0.7444 C.1     1  LIG1        0.1013
     57 H         -13.0340   10.0094    0.3720 H       1  LIG1        0.0645
@<TRIPOS>BOND
     1    47    45    1
     2    46    45    1
     3    30    27    1
     4    28    27    1
     5    45    40    1
     6    41    39    1
     7    11     9    1
     8    27    13    1
     9    17    14    1
    10    26    18    1
    11    22    19    1
    12    53    52    1
    13    40    39   ar
    14    40    37   ar
    15    39    36   ar
    16    54    51    1
    17    18    19   ar
    18    18    20   ar
    19    19    21   ar
    20    52    51   ar
    21    52    48   ar
    22    51    50   ar
    23    29    13    1
    24     7     3    1
    25    15    14    1
    26    14    16    1
    27    20     5    1
    28    20    23   ar
    29     5     6   ar
    30     5     4   ar
    31     6     1   ar
    32     4     3   ar
    33     1     2   ar
    34     1     9    1
    35     2     3   ar
    36     2     8    1
    37     9    12    1
    38     9    10    1
    39    37    48    1
    40    37    35   ar
    41    48    49   ar
    42    21    36    1
    43    21    24   ar
    44    36    34   ar
    45    50    49   ar
    46    50    57    1
    47    49    56    1
    48    23    24   ar
    49    23    25    1
    50    24    31    1
    51    33    31    1
    52    32    31    1
    53    35    34   ar
    54    35    38    1
    55    34    42    1
    56    56    55    3
    57    44    42    1
    58    43    42    1
