@<TRIPOS>MOLECULE
mol_data/noopt/geoms/mol2/6il4hl(350)12id(290)6ei(230).out
 59 60 0 0 0
SMALL
GASTEIGER

@<TRIPOS>ATOM
      1 C          -4.5775   -2.0270    0.0001 C.ar    1  LIG1        0.0392
      2 C          -3.1706   -2.0270    0.0001 C.ar    1  LIG1       -0.0370
      3 C          -2.5039   -0.8004    0.0001 C.ar    1  LIG1       -0.0111
      4 C          -3.2580    0.3743   -0.0001 C.ar    1  LIG1        0.2048
      5 C          -4.6612    0.2715   -0.0003 C.ar    1  LIG1        0.1196
      6 N          -5.3207   -0.9034   -0.0001 N.ar    1  LIG1       -0.2480
      7 H          -1.4054   -0.7607   -0.0009 H       1  LIG1        0.0657
      8 H          -2.5135   -3.1487    0.0004 H       1  LIG1        0.0636
      9 C          -5.2433   -3.1440    0.0002 C.3     1  LIG1       -0.0223
     10 H          -4.6754   -3.8976    0.5047 H       1  LIG1        0.0292
     11 H          -5.4259   -3.4505   -1.0086 H       1  LIG1        0.0292
     12 H          -6.1763   -3.0029    0.5046 H       1  LIG1        0.0292
     13 O          -2.6846    1.5410   -0.0003 O.3     1  LIG1       -0.2856
     14 C          -1.2643    1.3748   -0.0004 C.3     2  LIG2       -0.0681
     15 H          -0.7927    2.3353   -0.0008 H       1  LIG1        0.0227
     16 H          -0.9685    0.8326    0.8734 H       1  LIG1        0.0227
     17 H          -0.9687    0.8321   -0.8739 H       1  LIG1        0.0227
     18 C          -4.8227    2.6024   -0.2120 C.ar    1  LIG1        0.0348
     19 C          -5.6726    3.7253   -0.2013 C.ar    1  LIG1       -0.0292
     20 C          -5.4065    1.3366   -0.0004 C.ar    1  LIG1        0.0282
     21 C          -7.0435    3.5959    0.0099 C.ar    1  LIG1        0.0264
     22 H          -5.2429    4.7115   -0.3623 H       1  LIG1        0.0643
     23 C          -6.7750    1.2068    0.2105 C.ar    1  LIG1       -0.0083
     24 C          -7.6028    2.3343    0.2171 C.ar    1  LIG1        0.1291
     25 H          -7.2012    0.2199    0.3714 H       1  LIG1        0.0661
     26 N          -3.5518    2.7864   -0.4145 N.pl3   1  LIG1       -0.3574
     27 H          -3.1817    2.0150   -0.9320 H       1  LIG1        0.1423
     28 H          -3.4157    3.6311   -0.9321 H       1  LIG1        0.1423
     29 O          -8.8813    2.2069    0.4149 O.3     1  LIG1       -0.4880
     30 C          -9.4844    3.5015    0.4875 C.3     1  LIG1        0.1235
     31 H         -10.5367    3.3962    0.6501 H       1  LIG1        0.0731
     32 H          -9.0517    4.0517    1.2968 H       1  LIG1        0.2922
     33 H          -9.3160    4.0254   -0.4301 H       1  LIG1        0.0731
     34 C          -7.7987    4.6540    0.0133 C.2     1  LIG1       -0.0020
     35 C          -8.0693    5.6719   -0.8776 C.2     1  LIG1       -0.0211
     36 C          -9.0234    6.5475   -0.2296 C.2     1  LIG1        0.0972
     37 C          -9.2728    6.0062    1.0148 C.2     1  LIG1        0.1442
     38 O          -8.5294    4.8382    1.1879 O.2     1  LIG1       -0.5048
     39 C          -7.5784    5.8371   -2.0703 C.3     1  LIG1       -0.0378
     40 H          -7.2839    6.8580   -2.1965 H       1  LIG1        0.0278
     41 H          -8.3208    5.5873   -2.7993 H       1  LIG1        0.0278
     42 H          -6.7266    5.2019   -2.1965 H       1  LIG1        0.0278
     43 N          -9.9782    8.5815   -1.1976 N.1     1  LIG1       -0.1907
     44 C          -9.5307    7.6283   -0.7440 C.1     1  LIG1        0.1031
     45 C          -9.4509    6.9316    3.1666 C.ar    1  LIG1        0.1238
     46 C         -10.0182    6.3250    2.0310 C.ar    1  LIG1        0.0517
     47 C         -11.3920    6.0765    2.0241 C.ar    1  LIG1       -0.0440
     48 C         -12.1460    6.4389    3.1416 C.ar    1  LIG1       -0.0316
     49 C         -11.4875    7.0405    4.2297 C.ar    1  LIG1        0.0319
     50 N         -10.1633    7.2877    4.2531 N.ar    1  LIG1       -0.2457
     51 H         -11.8705    5.6032    1.1551 H       1  LIG1        0.0629
     52 H         -12.1464    7.3956    5.2925 H       1  LIG1        0.0832
     53 C          -8.1766    7.1832    3.2201 C.1     1  LIG1       -0.0491
     54 C          -6.9991    7.4157    3.2696 C.1     1  LIG1       -0.1124
     55 H          -5.9503    7.6228    3.3137 H       1  LIG1        0.1232
     56 C         -13.4285    6.2285    3.1841 C.3     1  LIG1       -0.0383
     57 H         -13.6226    5.3113    3.6999 H       1  LIG1        0.0278
     58 H         -13.8129    6.1653    2.1875 H       1  LIG1        0.0278
     59 H         -13.9054    7.0356    3.6999 H       1  LIG1        0.0278
@<TRIPOS>BOND
     1    41    39    1
     2    40    39    1
     3    42    39    1
     4    39    35    1
     5    43    44    3
     6    11     9    1
     7    28    26    1
     8    27    26    1
     9    35    36    1
    10    35    34    2
    11    17    14    1
    12    44    36    1
    13    33    30    1
    14    26    18    1
    15    22    19    1
    16    36    37    2
    17    18    19   ar
    18    18    20   ar
    19    19    21   ar
    20     7     3    1
    21    15    14    1
    22    14    16    1
    23    20     5    1
    24    20    23   ar
    25     5     4   ar
    26     5     6   ar
    27    13     4    1
    28     4     3   ar
    29     6     1   ar
    30     2     3   ar
    31     2     1   ar
    32     2     8    1
    33     1     9    1
    34     9    12    1
    35     9    10    1
    36    21    34    1
    37    21    24   ar
    38    23    24   ar
    39    23    25    1
    40    24    29    1
    41    29    30    1
    42    30    31    1
    43    37    38    1
    44    37    46    1
    45    51    47    1
    46    38    32    1
    47    47    46   ar
    48    47    48   ar
    49    46    45   ar
    50    58    56    1
    51    48    56    1
    52    48    49   ar
    53    45    53    1
    54    45    50   ar
    55    56    59    1
    56    56    57    1
    57    53    54    3
    58    54    55    1
    59    49    50   ar
    60    49    52    1
