@<TRIPOS>MOLECULE
mol_data/noopt/geoms/mol2/6il6il.out
 34 35 0 0 0
SMALL
GASTEIGER

@<TRIPOS>ATOM
      1 C          -4.5775   -2.0270    0.0001 C.ar    1  LIG1        0.0392
      2 C          -3.1706   -2.0270    0.0001 C.ar    1  LIG1       -0.0372
      3 C          -2.5039   -0.8004    0.0001 C.ar    1  LIG1       -0.0161
      4 C          -3.2580    0.3743   -0.0001 C.ar    1  LIG1        0.1460
      5 C          -4.6612    0.2715   -0.0003 C.ar    1  LIG1        0.1145
      6 N          -5.3207   -0.9034   -0.0001 N.ar    1  LIG1       -0.2482
      7 H          -1.4054   -0.7607   -0.0009 H       1  LIG1        0.0655
      8 H          -2.5135   -3.1487    0.0004 H       1  LIG1        0.0636
      9 C          -5.2433   -3.1440    0.0002 C.3     1  LIG1       -0.0223
     10 H          -4.6754   -3.8976    0.5047 H       1  LIG1        0.0292
     11 H          -5.4259   -3.4505   -1.0086 H       1  LIG1        0.0292
     12 H          -6.1763   -3.0029    0.5046 H       1  LIG1        0.0292
     13 O          -2.6846    1.5410   -0.0003 O.3     1  LIG1       -0.4930
     14 C          -1.2643    1.3748   -0.0004 C.3     1  LIG1        0.0789
     15 H          -0.7927    2.3353   -0.0008 H       1  LIG1        0.0660
     16 H          -0.9685    0.8326    0.8734 H       1  LIG1        0.0660
     17 H          -0.9687    0.8321   -0.8739 H       1  LIG1        0.0660
     18 C          -6.8088    1.2233   -0.0003 C.ar    1  LIG1        0.0477
     19 C          -5.4065    1.3366   -0.0004 C.ar    1  LIG1        0.0284
     20 C          -4.8408    2.6129   -0.0003 C.ar    1  LIG1       -0.0074
     21 C          -5.6871    3.7231   -0.0003 C.ar    1  LIG1        0.1387
     22 C          -7.0774    3.5076   -0.0004 C.ar    1  LIG1        0.0695
     23 N          -7.6401    2.2834   -0.0003 N.ar    1  LIG1       -0.2559
     24 H          -3.7491    2.7410   -0.0014 H       1  LIG1        0.0662
     25 H          -7.9061    4.5092   -0.0003 H       1  LIG1        0.0867
     26 C          -7.3825    0.0563   -0.0003 C.3     1  LIG1       -0.0217
     27 H          -6.7558   -0.6491    0.5041 H       1  LIG1        0.0293
     28 H          -7.5398   -0.2638   -1.0091 H       1  LIG1        0.0293
     29 H          -8.3239    0.1217    0.5041 H       1  LIG1        0.0293
     30 O          -5.2095    4.9322   -0.0004 O.3     1  LIG1       -0.4936
     31 C          -3.7804    4.8809   -0.0005 C.3     1  LIG1        0.0789
     32 H          -3.3877    5.8763   -0.0007 H       1  LIG1        0.0660
     33 H          -3.4420    4.3642    0.8733 H       1  LIG1        0.0660
     34 H          -3.4421    4.3639   -0.8740 H       1  LIG1        0.0660
@<TRIPOS>BOND
     1    28    26    1
     2    11     9    1
     3    34    31    1
     4    17    14    1
     5    24    20    1
     6     7     3    1
     7    15    14    1
     8    32    31    1
     9    31    30    1
    10    31    33    1
    11    14    13    1
    12    14    16    1
    13    19     5    1
    14    19    18   ar
    15    19    20   ar
    16    22    23   ar
    17    22    25    1
    18    22    21   ar
    19    30    21    1
    20     5     4   ar
    21     5     6   ar
    22    13     4    1
    23    18    26    1
    24    18    23   ar
    25    20    21   ar
    26    26    29    1
    27    26    27    1
    28     4     3   ar
    29     6     1   ar
    30     2     3   ar
    31     2     1   ar
    32     2     8    1
    33     1     9    1
    34     9    12    1
    35     9    10    1
