@<TRIPOS>MOLECULE
mol_data/noopt/geoms/mol2/6il6il-.out
 34 34 0 0 0
SMALL
GASTEIGER

@<TRIPOS>ATOM
      1 C          -4.5775   -2.0270    0.0001 C.ar    1  LIG1        0.0392
      2 C          -3.1706   -2.0270    0.0001 C.ar    1  LIG1       -0.0372
      3 C          -2.5039   -0.8004    0.0001 C.ar    1  LIG1       -0.0164
      4 C          -3.2580    0.3743   -0.0001 C.ar    1  LIG1        0.1428
      5 C          -4.6612    0.2715   -0.0003 C.ar    1  LIG1        0.1143
      6 N          -5.3207   -0.9034   -0.0001 N.ar    1  LIG1       -0.2482
      7 H          -1.4054   -0.7607   -0.0009 H       1  LIG1        0.0655
      8 H          -2.5135   -3.1487    0.0004 H       1  LIG1        0.0636
      9 C          -5.2433   -3.1440    0.0002 C.3     1  LIG1       -0.0223
     10 H          -4.6754   -3.8976    0.5047 H       1  LIG1        0.0292
     11 H          -5.4259   -3.4505   -1.0086 H       1  LIG1        0.0292
     12 H          -6.1763   -3.0029    0.5046 H       1  LIG1        0.0292
     13 O          -2.6846    1.5410   -0.0003 O.3     1  LIG1       -0.5046
     14 C          -1.2643    1.3748   -0.0004 C.3     2  LIG2       -0.0681
     15 H          -0.7927    2.3353   -0.0008 H       1  LIG1        0.0227
     16 H          -0.9685    0.8326    0.8734 H       1  LIG1        0.0227
     17 H          -0.9687    0.8321   -0.8739 H       1  LIG1        0.0227
     18 C          -4.8196    2.6153   -0.0003 C.ar    1  LIG1        0.0511
     19 C          -5.4065    1.3366   -0.0004 C.ar    1  LIG1        0.0287
     20 C          -6.7994    1.2424   -0.0003 C.ar    1  LIG1       -0.0074
     21 C          -7.5524    2.4178   -0.0003 C.ar    1  LIG1        0.1387
     22 C          -6.8736    3.6502   -0.0004 C.ar    1  LIG1        0.0695
     23 N          -5.5307    3.7594   -0.0003 N.ar    1  LIG1       -0.2556
     24 H          -7.2937    0.2606   -0.0014 H       1  LIG1        0.0662
     25 H          -7.5307    4.7719   -0.0003 H       1  LIG1        0.0867
     26 C          -3.5268    2.7544   -0.0003 C.3     1  LIG1       -0.0043
     27 H          -3.2656    3.6611    0.5042 H       1  LIG1        0.0332
     28 H          -3.1721    2.7926   -1.0091 H       1  LIG1        0.0332
     29 H          -3.0787    1.9238    0.5041 H       1  LIG1        0.2922
     30 O          -8.8520    2.3834   -0.0004 O.3     1  LIG1       -0.4936
     31 C          -9.3648    3.7183   -0.0005 C.3     1  LIG1        0.0789
     32 H         -10.4344    3.6895   -0.0008 H       1  LIG1        0.0660
     33 H          -9.0221    4.2321    0.8733 H       1  LIG1        0.0660
     34 H          -9.0217    4.2321   -0.8740 H       1  LIG1        0.0660
@<TRIPOS>BOND
     1    28    26    1
     2    11     9    1
     3    34    31    1
     4    17    14    1
     5    24    20    1
     6     7     3    1
     7    15    14    1
     8    32    31    1
     9    31    30    1
    10    31    33    1
    11    14    16    1
    12    19    20   ar
    13    19     5    1
    14    19    18   ar
    15    30    21    1
    16    22    21   ar
    17    22    25    1
    18    22    23   ar
    19    20    21   ar
    20    13     4    1
    21    13    29    1
    22     5     6   ar
    23     5     4   ar
    24    18    23   ar
    25    18    26    1
    26    26    27    1
    27     6     1   ar
    28     4     3   ar
    29     1     2   ar
    30     1     9    1
    31     3     2   ar
    32     2     8    1
    33     9    12    1
    34     9    10    1
