@<TRIPOS>MOLECULE
mol_data/noopt/geoms/mol2/6il6il6il6il-.out
 66 68 0 0 0
SMALL
GASTEIGER

@<TRIPOS>ATOM
      1 C          -4.5775   -2.0270    0.0001 C.ar    1  LIG1        0.0392
      2 C          -3.1706   -2.0270    0.0001 C.ar    1  LIG1       -0.0372
      3 C          -2.5039   -0.8004    0.0001 C.ar    1  LIG1       -0.0161
      4 C          -3.2580    0.3743   -0.0001 C.ar    1  LIG1        0.1460
      5 C          -4.6612    0.2715   -0.0003 C.ar    1  LIG1        0.1145
      6 N          -5.3207   -0.9034   -0.0001 N.ar    1  LIG1       -0.2482
      7 H          -1.4054   -0.7607   -0.0009 H       1  LIG1        0.0655
      8 H          -2.5135   -3.1487    0.0004 H       1  LIG1        0.0636
      9 C          -5.2433   -3.1440    0.0002 C.3     1  LIG1       -0.0223
     10 H          -4.6754   -3.8976    0.5047 H       1  LIG1        0.0292
     11 H          -5.4259   -3.4505   -1.0086 H       1  LIG1        0.0292
     12 H          -6.1763   -3.0029    0.5046 H       1  LIG1        0.0292
     13 O          -2.6846    1.5410   -0.0003 O.3     1  LIG1       -0.4930
     14 C          -1.2643    1.3748   -0.0004 C.3     1  LIG1        0.0789
     15 H          -0.7927    2.3353   -0.0008 H       1  LIG1        0.0660
     16 H          -0.9685    0.8326    0.8734 H       1  LIG1        0.0660
     17 H          -0.9687    0.8321   -0.8739 H       1  LIG1        0.0660
     18 C          -6.8088    1.2233   -0.0003 C.ar    1  LIG1        0.0484
     19 C          -5.4065    1.3366   -0.0004 C.ar    1  LIG1        0.0284
     20 C          -4.8408    2.6129   -0.0003 C.ar    1  LIG1       -0.0068
     21 C          -5.6871    3.7231   -0.0003 C.ar    1  LIG1        0.1466
     22 C          -7.0774    3.5076   -0.0004 C.ar    1  LIG1        0.1146
     23 N          -7.6401    2.2834   -0.0003 N.ar    1  LIG1       -0.2475
     24 H          -3.7491    2.7410   -0.0014 H       1  LIG1        0.0662
     25 C          -7.3825    0.0563   -0.0003 C.3     1  LIG1       -0.0217
     26 H          -6.7558   -0.6491    0.5041 H       1  LIG1        0.0293
     27 H          -7.5398   -0.2638   -1.0091 H       1  LIG1        0.0293
     28 H          -8.3239    0.1217    0.5041 H       1  LIG1        0.0293
     29 O          -5.2095    4.9322   -0.0004 O.3     1  LIG1       -0.4929
     30 C          -3.7804    4.8809   -0.0005 C.3     1  LIG1        0.0789
     31 H          -3.3877    5.8763   -0.0007 H       1  LIG1        0.0660
     32 H          -3.4420    4.3642    0.8733 H       1  LIG1        0.0660
     33 H          -3.4421    4.3639   -0.8740 H       1  LIG1        0.0660
     34 C          -9.2948    4.2833   -0.0001 C.ar    1  LIG1        0.0484
     35 C          -7.9061    4.5092   -0.0003 C.ar    1  LIG1        0.0284
     36 C          -7.4450    5.8270   -0.0001 C.ar    1  LIG1       -0.0070
     37 C          -8.3780    6.8653    0.0002 C.ar    1  LIG1        0.1434
     38 C          -9.7465    6.5385    0.0002 C.ar    1  LIG1        0.1144
     39 N         -10.2087    5.2730    0.0002 N.ar    1  LIG1       -0.2475
     40 H          -6.3672    6.0425   -0.0012 H       1  LIG1        0.0662
     41 C          -9.7725    3.0739   -0.0002 C.3     1  LIG1       -0.0217
     42 H          -9.0910    2.4212    0.5042 H       1  LIG1        0.0293
     43 H          -9.9035    2.7422   -1.0090 H       1  LIG1        0.0293
     44 H         -10.7161    3.0632    0.5042 H       1  LIG1        0.0293
     45 O          -7.9993    8.1090    0.0002 O.3     1  LIG1       -0.5046
     46 C          -6.5708    8.1730    0.0001 C.3     2  LIG2       -0.0681
     47 H          -6.2596    9.1967   -0.0000 H       1  LIG1        0.0227
     48 H          -6.1918    7.6852    0.8739 H       1  LIG1        0.0227
     49 H          -6.1919    7.6849   -0.8734 H       1  LIG1        0.0227
     50 C         -10.2792    8.8264    0.0008 C.ar    1  LIG1        0.0511
     51 C         -10.6531    7.4702    0.0005 C.ar    1  LIG1        0.0287
     52 C         -12.0128    7.1535    0.0008 C.ar    1  LIG1       -0.0074
     53 C         -12.9448    8.1927    0.0012 C.ar    1  LIG1        0.1387
     54 C         -12.4727    9.5181    0.0013 C.ar    1  LIG1        0.0695
     55 N         -11.1648    9.8416    0.0012 N.ar    1  LIG1       -0.2556
     56 H         -12.3431    6.1051   -0.0005 H       1  LIG1        0.0662
     57 H         -13.3014   10.5197    0.0018 H       1  LIG1        0.0867
     58 C          -9.0254    9.1713    0.0006 C.3     1  LIG1       -0.0043
     59 H          -8.9132   10.1083    0.5050 H       1  LIG1        0.0332
     60 H          -8.6817    9.2660   -1.0083 H       1  LIG1        0.0332
     61 H          -8.4498    8.4236    0.5049 H       1  LIG1        0.2922
     62 O         -14.2220    7.9501    0.0013 O.3     1  LIG1       -0.4936
     63 C         -14.9425    9.1853    0.0013 C.3     1  LIG1        0.0789
     64 H         -15.9936    8.9851    0.0012 H       1  LIG1        0.0660
     65 H         -14.6866    9.7475    0.8750 H       1  LIG1        0.0660
     66 H         -14.6865    9.7475   -0.8723 H       1  LIG1        0.0660
@<TRIPOS>BOND
     1    27    25    1
     2    43    41    1
     3    11     9    1
     4    60    58    1
     5    33    30    1
     6    17    14    1
     7    49    46    1
     8    66    63    1
     9    24    20    1
    10    40    36    1
    11     7     3    1
    12    15    14    1
    13    31    30    1
    14    56    52    1
    15    30    29    1
    16    30    32    1
    17    14    13    1
    18    14    16    1
    19    19     5    1
    20    19    18   ar
    21    19    20   ar
    22    22    23   ar
    23    22    35    1
    24    22    21   ar
    25    29    21    1
    26    13     4    1
    27     5     6   ar
    28     5     4   ar
    29    18    25    1
    30    18    23   ar
    31    20    21   ar
    32    25    28    1
    33    25    26    1
    34    35    34   ar
    35    35    36   ar
    36    41    34    1
    37    41    44    1
    38    41    42    1
    39     6     1   ar
    40     4     3   ar
    41    34    39   ar
    42    36    37   ar
    43    47    46    1
    44     2     1   ar
    45     2     3   ar
    46     2     8    1
    47     1     9    1
    48    46    48    1
    49    39    38   ar
    50    38    37   ar
    51    38    51    1
    52    37    45    1
    53    45    61    1
    54     9    12    1
    55     9    10    1
    56    51    52   ar
    57    51    50   ar
    58    58    50    1
    59    58    59    1
    60    52    53   ar
    61    50    55   ar
    62    53    54   ar
    63    53    62    1
    64    55    54   ar
    65    64    63    1
    66    63    62    1
    67    63    65    1
    68    54    57    1
