@<TRIPOS>MOLECULE
mol_data/noopt/geoms/mol2/6il6il6il.out
 50 52 0 0 0
SMALL
GASTEIGER

@<TRIPOS>ATOM
      1 C          -4.5775   -2.0270    0.0001 C.ar    1  LIG1        0.0392
      2 C          -3.1706   -2.0270    0.0001 C.ar    1  LIG1       -0.0372
      3 C          -2.5039   -0.8004    0.0001 C.ar    1  LIG1       -0.0161
      4 C          -3.2580    0.3743   -0.0001 C.ar    1  LIG1        0.1460
      5 C          -4.6612    0.2715   -0.0003 C.ar    1  LIG1        0.1145
      6 N          -5.3207   -0.9034   -0.0001 N.ar    1  LIG1       -0.2482
      7 H          -1.4054   -0.7607   -0.0009 H       1  LIG1        0.0655
      8 H          -2.5135   -3.1487    0.0004 H       1  LIG1        0.0636
      9 C          -5.2433   -3.1440    0.0002 C.3     1  LIG1       -0.0223
     10 H          -4.6754   -3.8976    0.5047 H       1  LIG1        0.0292
     11 H          -5.4259   -3.4505   -1.0086 H       1  LIG1        0.0292
     12 H          -6.1763   -3.0029    0.5046 H       1  LIG1        0.0292
     13 O          -2.6846    1.5410   -0.0003 O.3     1  LIG1       -0.4930
     14 C          -1.2643    1.3748   -0.0004 C.3     1  LIG1        0.0789
     15 H          -0.7927    2.3353   -0.0008 H       1  LIG1        0.0660
     16 H          -0.9685    0.8326    0.8734 H       1  LIG1        0.0660
     17 H          -0.9687    0.8321   -0.8739 H       1  LIG1        0.0660
     18 C          -6.8088    1.2233   -0.0003 C.ar    1  LIG1        0.0484
     19 C          -5.4065    1.3366   -0.0004 C.ar    1  LIG1        0.0284
     20 C          -4.8408    2.6129   -0.0003 C.ar    1  LIG1       -0.0068
     21 C          -5.6871    3.7231   -0.0003 C.ar    1  LIG1        0.1466
     22 C          -7.0774    3.5076   -0.0004 C.ar    1  LIG1        0.1146
     23 N          -7.6401    2.2834   -0.0003 N.ar    1  LIG1       -0.2475
     24 H          -3.7491    2.7410   -0.0014 H       1  LIG1        0.0662
     25 C          -7.3825    0.0563   -0.0003 C.3     1  LIG1       -0.0217
     26 H          -6.7558   -0.6491    0.5041 H       1  LIG1        0.0293
     27 H          -7.5398   -0.2638   -1.0091 H       1  LIG1        0.0293
     28 H          -8.3239    0.1217    0.5041 H       1  LIG1        0.0293
     29 O          -5.2095    4.9322   -0.0004 O.3     1  LIG1       -0.4929
     30 C          -3.7804    4.8809   -0.0005 C.3     1  LIG1        0.0789
     31 H          -3.3877    5.8763   -0.0007 H       1  LIG1        0.0660
     32 H          -3.4420    4.3642    0.8733 H       1  LIG1        0.0660
     33 H          -3.4421    4.3639   -0.8740 H       1  LIG1        0.0660
     34 C          -9.2948    4.2833   -0.0001 C.ar    1  LIG1        0.0477
     35 C          -7.9061    4.5092   -0.0003 C.ar    1  LIG1        0.0284
     36 C          -7.4450    5.8270   -0.0001 C.ar    1  LIG1       -0.0074
     37 C          -8.3780    6.8653    0.0002 C.ar    1  LIG1        0.1387
     38 C          -9.7465    6.5385    0.0002 C.ar    1  LIG1        0.0695
     39 N         -10.2087    5.2730    0.0002 N.ar    1  LIG1       -0.2559
     40 H          -6.3672    6.0425   -0.0012 H       1  LIG1        0.0662
     41 H         -10.6531    7.4701    0.0005 H       1  LIG1        0.0867
     42 C          -9.7725    3.0739   -0.0002 C.3     1  LIG1       -0.0217
     43 H          -9.0910    2.4212    0.5042 H       1  LIG1        0.0293
     44 H          -9.9035    2.7422   -1.0090 H       1  LIG1        0.0293
     45 H         -10.7161    3.0632    0.5042 H       1  LIG1        0.0293
     46 O          -7.9993    8.1090    0.0002 O.3     1  LIG1       -0.4936
     47 C          -6.5708    8.1730    0.0001 C.3     1  LIG1        0.0789
     48 H          -6.2596    9.1967   -0.0000 H       1  LIG1        0.0660
     49 H          -6.1918    7.6852    0.8739 H       1  LIG1        0.0660
     50 H          -6.1919    7.6849   -0.8734 H       1  LIG1        0.0660
@<TRIPOS>BOND
     1    27    25    1
     2    44    42    1
     3    11     9    1
     4    33    30    1
     5    17    14    1
     6    50    47    1
     7    24    20    1
     8    40    36    1
     9     7     3    1
    10    15    14    1
    11    31    30    1
    12    30    29    1
    13    30    32    1
    14    14    13    1
    15    14    16    1
    16    19     5    1
    17    19    18   ar
    18    19    20   ar
    19    22    23   ar
    20    22    35    1
    21    22    21   ar
    22    29    21    1
    23    13     4    1
    24     5     6   ar
    25     5     4   ar
    26    18    25    1
    27    18    23   ar
    28    20    21   ar
    29    25    28    1
    30    25    26    1
    31    35    34   ar
    32    35    36   ar
    33    42    34    1
    34    42    45    1
    35    42    43    1
    36     6     1   ar
    37     4     3   ar
    38    34    39   ar
    39    36    37   ar
    40    48    47    1
    41     1     2   ar
    42     1     9    1
    43     2     3   ar
    44     2     8    1
    45    47    46    1
    46    47    49    1
    47    39    38   ar
    48    38    37   ar
    49    38    41    1
    50    37    46    1
    51     9    12    1
    52     9    10    1
