@<TRIPOS>MOLECULE
mol_data/noopt/geoms/mol2/6la13le(60)6di(30)12ih(90).out
 54 57 0 0 0
SMALL
GASTEIGER

@<TRIPOS>ATOM
      1 C          -4.5775   -2.0270    0.0001 C.ar    1  LIG1        0.2150
      2 C          -3.1706   -2.0270    0.0001 C.ar    1  LIG1        0.0000
      3 C          -2.5039   -0.8004    0.0001 C.ar    1  LIG1       -0.0547
      4 C          -3.2580    0.3743   -0.0001 C.ar    1  LIG1       -0.0339
      5 C          -4.6612    0.2715   -0.0003 C.ar    1  LIG1        0.0945
      6 N          -5.3207   -0.9034   -0.0001 N.ar    1  LIG1       -0.2113
      7 H          -1.4054   -0.7607   -0.0009 H       1  LIG1        0.0620
      8 H          -2.5135   -3.1487    0.0004 H       1  LIG1        0.0671
      9 O          -5.2431   -3.1437    0.0002 O.3     1  LIG1       -0.4796
     10 C          -6.6454   -2.8635    0.0002 C.3     1  LIG1        0.0804
     11 H          -7.1928   -3.7829    0.0001 H       1  LIG1        0.0660
     12 H          -6.8964   -2.2991    0.8739 H       1  LIG1        0.0660
     13 H          -6.8963   -2.2990   -0.8734 H       1  LIG1        0.0660
     14 H          -2.6846    1.5410   -0.0003 H       1  LIG1        0.0639
     15 C          -5.4065    1.3366   -0.0004 C.ar    1  LIG1        0.1090
     16 C          -5.4614    2.3748    0.8755 C.ar    1  LIG1        0.1627
     17 C          -6.4620    3.2825    0.4008 C.ar    1  LIG1        0.0922
     18 C          -6.9735    2.7600   -0.7453 C.ar    1  LIG1        0.0689
     19 N          -6.3304    1.5685   -0.9943 N.ar    1  LIG1       -0.3490
     20 H          -6.5050    0.9708   -1.7691 H       1  LIG1        0.1661
     21 O          -4.7380    2.5137    1.9468 O.3     1  LIG1       -0.4917
     22 C          -4.2182    1.2409    2.3400 C.3     1  LIG1        0.0789
     23 H          -3.6228    1.3557    3.2216 H       1  LIG1        0.0660
     24 H          -5.0283    0.5715    2.5415 H       1  LIG1        0.0660
     25 H          -3.6145    0.8430    1.5513 H       1  LIG1        0.0660
     26 C          -6.8181    4.4009    0.9595 C.1     1  LIG1       -0.0638
     27 C          -7.1472    5.4344    1.4759 C.1     1  LIG1       -0.1137
     28 H          -7.4403    6.3550    1.9358 H       1  LIG1        0.1232
     29 C          -8.5334    2.3516   -2.4535 C.ar    1  LIG1        0.1499
     30 C          -7.8985    3.2118   -1.5391 C.ar    1  LIG1        0.0358
     31 C          -8.2852    4.5529   -1.5065 C.ar    1  LIG1       -0.0448
     32 C          -9.2838    4.9857   -2.3806 C.ar    1  LIG1       -0.0207
     33 C          -9.8592    4.0496   -3.2592 C.ar    1  LIG1        0.1107
     34 N          -9.4984    2.7522   -3.3039 N.ar    1  LIG1       -0.2323
     35 H          -7.8110    5.2550   -0.8062 H       1  LIG1        0.0628
     36 N          -7.9208   -0.0137   -2.5810 N.1     1  LIG1       -0.1893
     37 C          -8.2079    1.0948   -2.5213 C.1     1  LIG1        0.1198
     38 C          -9.6789    6.2245   -2.3892 C.3     1  LIG1       -0.0376
     39 H         -10.6207    6.3020   -1.8872 H       1  LIG1        0.0278
     40 H          -9.7854    6.5579   -3.4004 H       1  LIG1        0.0278
     41 H          -8.9560    6.8330   -1.8872 H       1  LIG1        0.0278
     42 C         -10.7925    4.4044   -4.0917 C.ar    1  LIG1        0.1579
     43 C         -12.0776    4.8929   -3.9784 C.ar    1  LIG1        0.0175
     44 C         -12.5705    5.0803   -5.3270 C.ar    1  LIG1        0.0664
     45 C         -11.5534    4.6938   -6.1754 C.ar    1  LIG1        0.1135
     46 O         -10.4466    4.2731   -5.4373 O.2     1  LIG1       -0.4592
     47 H         -11.3949    4.6335   -7.4643 H       1  LIG1        0.1049
     48 C         -12.7401    5.1447   -2.8882 C.3     1  LIG1       -0.0343
     49 H         -12.8368    4.2469   -2.3142 H       1  LIG1        0.0279
     50 H         -13.7125    5.5142   -3.1390 H       1  LIG1        0.0279
     51 H         -12.2161    5.8802   -2.3143 H       1  LIG1        0.0279
     52 N         -13.7481    5.5280   -5.6480 N.pl3   1  LIG1       -0.3553
     53 H         -13.6511    6.3647   -6.1871 H       1  LIG1        0.1424
     54 H         -14.2314    4.8383   -6.1871 H       1  LIG1        0.1424
@<TRIPOS>BOND
     1    47    45    1
     2    54    52    1
     3    53    52    1
     4    45    46   ar
     5    45    44   ar
     6    52    44    1
     7    46    42   ar
     8    44    43   ar
     9    42    43   ar
    10    42    33    1
    11    43    48    1
    12    40    38    1
    13    34    33   ar
    14    34    29   ar
    15    33    32   ar
    16    50    48    1
    17    48    51    1
    18    48    49    1
    19    36    37    3
    20    37    29    1
    21    29    30   ar
    22    38    32    1
    23    38    41    1
    24    38    39    1
    25    32    31   ar
    26    20    19    1
    27    30    31   ar
    28    30    18    1
    29    31    35    1
    30    19    18   ar
    31    19    15   ar
    32    13    10    1
    33    18    17   ar
    34     7     3    1
    35    15     5    1
    36    15    16   ar
    37    14     4    1
    38     5     6   ar
    39     5     4   ar
    40     6     1   ar
    41     4     3   ar
    42    11    10    1
    43     1     2   ar
    44     1     9    1
    45     3     2   ar
    46     2     8    1
    47    10     9    1
    48    10    12    1
    49    17    16   ar
    50    17    26    1
    51    16    21    1
    52    26    27    3
    53    27    28    1
    54    25    22    1
    55    21    22    1
    56    22    24    1
    57    22    23    1
