@<TRIPOS>MOLECULE
mol_data/noopt/geoms/mol2/6la12ha13ff13ef-.out
 45 48 0 0 0
SMALL
GASTEIGER

@<TRIPOS>ATOM
      1 C          -4.5775   -2.0270    0.0001 C.ar    1  LIG1        0.2150
      2 C          -3.1706   -2.0270    0.0001 C.ar    1  LIG1        0.0000
      3 C          -2.5039   -0.8004    0.0001 C.ar    1  LIG1       -0.0546
      4 C          -3.2580    0.3743   -0.0001 C.ar    1  LIG1       -0.0324
      5 C          -4.6612    0.2715   -0.0003 C.ar    1  LIG1        0.1116
      6 N          -5.3207   -0.9034   -0.0001 N.ar    1  LIG1       -0.2097
      7 H          -1.4054   -0.7607   -0.0009 H       1  LIG1        0.0620
      8 H          -2.5135   -3.1487    0.0004 H       1  LIG1        0.0671
      9 O          -5.2431   -3.1437    0.0002 O.3     1  LIG1       -0.4796
     10 C          -6.6454   -2.8635    0.0002 C.3     1  LIG1        0.0804
     11 H          -7.1928   -3.7829    0.0001 H       1  LIG1        0.0660
     12 H          -6.8964   -2.2991    0.8739 H       1  LIG1        0.0660
     13 H          -6.8963   -2.2990   -0.8734 H       1  LIG1        0.0660
     14 H          -2.6846    1.5410   -0.0003 H       1  LIG1        0.0640
     15 C          -5.4065    1.3366   -0.0004 C.ar    1  LIG1        0.1745
     16 C          -5.1776    2.6970   -0.0005 C.ar    1  LIG1        0.0732
     17 C          -6.4770    3.3362   -0.0006 C.ar    1  LIG1        0.0072
     18 C          -7.4141    2.3236   -0.0007 C.ar    1  LIG1        0.1574
     19 O          -6.7786    1.0814   -0.0006 O.2     1  LIG1       -0.4498
     20 N          -4.0318    3.3111   -0.0004 N.pl3   1  LIG1       -0.3550
     21 H          -3.3523    2.7489   -0.4717 H       1  LIG1        0.1424
     22 H          -4.1236    4.1882   -0.4718 H       1  LIG1        0.1424
     23 H          -6.6905    4.6186   -0.0007 H       1  LIG1        0.0675
     24 C          -8.7127    2.2633   -0.0007 C.ar    1  LIG1        0.1284
     25 C          -9.6417    3.2556    0.0155 C.ar    1  LIG1        0.1879
     26 C         -10.9317    2.6340    0.0077 C.ar    1  LIG1        0.1864
     27 C         -10.7343    1.2891   -0.0146 C.ar    1  LIG1        0.1105
     28 N          -9.3772    1.0578   -0.0194 N.ar    1  LIG1       -0.3447
     29 H          -8.9457    0.1625   -0.0346 H       1  LIG1        0.1663
     30 O          -9.3996    4.5328    0.0359 O.3     1  LIG1       -0.5018
     31 H         -10.2291    5.0160    0.0409 H       1  LIG1        0.2924
     32 O         -12.0816    3.2404    0.0194 O.3     1  LIG1       -0.5019
     33 H         -12.7871    2.5893    0.0223 H       1  LIG1        0.2924
     34 C         -11.5905    0.3110   -0.0292 C.ar    1  LIG1        0.0858
     35 C         -12.9498    0.3286   -0.0228 C.ar    1  LIG1        0.0928
     36 C         -13.3951   -1.0322   -0.0452 C.ar    1  LIG1        0.1501
     37 C         -12.2885   -1.8215   -0.0661 C.ar    1  LIG1        0.0454
     38 N         -11.1814   -1.0032   -0.0559 N.ar    1  LIG1       -0.3554
     39 H         -10.2368   -1.3122   -0.0668 H       1  LIG1        0.1655
     40 H         -12.1762   -3.1164   -0.0907 H       1  LIG1        0.0845
     41 C         -13.7032    1.3877    0.0010 C.1     1  LIG1       -0.0638
     42 C         -14.3993    2.3664    0.0229 C.1     1  LIG1       -0.1137
     43 H         -15.0194    3.2382    0.0425 H       1  LIG1        0.1232
     44 O         -14.6291   -1.4413   -0.0460 O.3     1  LIG1       -0.5040
     45 H         -14.6485   -2.4011   -0.0462 H       1  LIG1        0.2923
@<TRIPOS>BOND
     1    13    10    1
     2    22    20    1
     3    21    20    1
     4    40    37    1
     5    39    38    1
     6    37    38   ar
     7    37    36   ar
     8    38    34   ar
     9    45    44    1
    10    44    36    1
    11    36    35   ar
    12    29    28    1
    13    34    35   ar
    14    34    27    1
    15    35    41    1
    16    28    27   ar
    17    28    24   ar
    18    27    26   ar
    19     7     3    1
    20    24    18    1
    21    24    25   ar
    22    23    17    1
    23    18    19   ar
    24    18    17   ar
    25    19    15   ar
    26    17    16   ar
    27    16    15   ar
    28    16    20    1
    29    15     5    1
    30    14     4    1
    31     5     4   ar
    32     5     6   ar
    33     4     3   ar
    34     6     1   ar
    35    11    10    1
    36     2     3   ar
    37     2     1   ar
    38     2     8    1
    39     1     9    1
    40    10     9    1
    41    10    12    1
    42    41    42    3
    43    26    25   ar
    44    26    32    1
    45    25    30    1
    46    32    33    1
    47    42    43    1
    48    30    31    1
