@<TRIPOS>MOLECULE
mol_data/noopt/geoms/mol2/6la12fh12fi-4de-.out
 49 52 0 0 0
SMALL
GASTEIGER

@<TRIPOS>ATOM
      1 C          -4.5775   -2.0270    0.0001 C.ar    1  LIG1        0.2150
      2 C          -3.1706   -2.0270    0.0001 C.ar    1  LIG1        0.0000
      3 C          -2.5039   -0.8004    0.0001 C.ar    1  LIG1       -0.0546
      4 C          -3.2580    0.3743   -0.0001 C.ar    1  LIG1       -0.0323
      5 C          -4.6612    0.2715   -0.0003 C.ar    1  LIG1        0.1135
      6 N          -5.3207   -0.9034   -0.0001 N.ar    1  LIG1       -0.2097
      7 H          -1.4054   -0.7607   -0.0009 H       1  LIG1        0.0620
      8 H          -2.5135   -3.1487    0.0004 H       1  LIG1        0.0671
      9 O          -5.2431   -3.1437    0.0002 O.3     1  LIG1       -0.4796
     10 C          -6.6454   -2.8635    0.0002 C.3     1  LIG1        0.0804
     11 H          -7.1928   -3.7829    0.0001 H       1  LIG1        0.0660
     12 H          -6.8964   -2.2991    0.8739 H       1  LIG1        0.0660
     13 H          -6.8963   -2.2990   -0.8734 H       1  LIG1        0.0660
     14 H          -2.6846    1.5410   -0.0003 H       1  LIG1        0.0640
     15 C          -5.4065    1.3366   -0.0004 C.ar    1  LIG1        0.1971
     16 C          -5.1776    2.6970   -0.0005 C.ar    1  LIG1        0.1861
     17 C          -6.4770    3.3362   -0.0006 C.ar    1  LIG1        0.1170
     18 C          -7.4141    2.3236   -0.0007 C.ar    1  LIG1        0.1985
     19 O          -6.7786    1.0814   -0.0006 O.2     1  LIG1       -0.4443
     20 O          -4.0318    3.3111   -0.0004 O.3     1  LIG1       -0.5019
     21 H          -4.1768    4.2601   -0.0003 H       1  LIG1        0.2924
     22 N          -6.6905    4.6186   -0.0007 N.pl3   1  LIG1       -0.3521
     23 H          -5.9398    5.0814   -0.4721 H       1  LIG1        0.1425
     24 H          -7.5506    4.8133   -0.4721 H       1  LIG1        0.1425
     25 C          -8.7127    2.2633   -0.0007 C.ar    1  LIG1        0.2139
     26 C          -9.7399    3.1841   -0.0007 C.ar    1  LIG1        0.1694
     27 C         -10.9748    2.4279   -0.0008 C.ar    1  LIG1        0.0376
     28 C         -10.6202    1.0946   -0.0009 C.ar    1  LIG1        0.1436
     29 O          -9.2307    0.9674   -0.0009 O.2     1  LIG1       -0.4475
     30 O          -9.6461    4.4808   -0.0006 O.3     1  LIG1       -0.5029
     31 H         -10.5256    4.8656   -0.0006 H       1  LIG1        0.2923
     32 C         -12.1729    2.9333   -0.0008 C.3     1  LIG1       -0.0326
     33 H         -12.8411    2.2670    0.5036 H       1  LIG1        0.0280
     34 H         -12.5015    3.0719   -1.0097 H       1  LIG1        0.0280
     35 H         -12.1619    3.8770    0.5035 H       1  LIG1        0.0280
     36 C         -12.6733   -0.0404    0.0212 C.ar    1  LIG1        0.0625
     37 C         -13.3232   -1.2898    0.0217 C.ar    1  LIG1       -0.0425
     38 C         -11.2636   -0.0350   -0.0009 C.ar    1  LIG1        0.0361
     39 C         -12.6034   -2.4822    0.0006 C.ar    1  LIG1       -0.0451
     40 H         -14.4105   -1.3169    0.0388 H       1  LIG1        0.0631
     41 C         -10.5445   -1.2252   -0.0220 C.ar    1  LIG1       -0.0344
     42 C         -11.2084   -2.4563   -0.0215 C.ar    1  LIG1        0.0254
     43 H          -9.4580   -1.1946   -0.0387 H       1  LIG1        0.0637
     44 H         -13.2358   -3.6181    0.0017 H       1  LIG1        0.0630
     45 N         -14.0391    1.9891    0.0588 N.1     1  LIG1       -0.1908
     46 C         -13.3990    1.0380    0.0412 C.1     1  LIG1        0.0999
     47 C         -10.5309   -3.5657   -0.0411 C.1     1  LIG1       -0.0696
     48 C          -9.9049   -4.5907   -0.0592 C.1     1  LIG1       -0.1139
     49 H          -9.3473   -5.5038   -0.0753 H       1  LIG1        0.1232
@<TRIPOS>BOND
     1    34    32    1
     2    13    10    1
     3    24    22    1
     4    23    22    1
     5    49    48    1
     6    48    47    3
     7    47    42    1
     8    43    41    1
     9    41    42   ar
    10    41    38   ar
    11    42    39   ar
    12    29    28   ar
    13    29    25   ar
    14    38    28    1
    15    38    36   ar
    16     7     3    1
    17    28    27   ar
    18    32    27    1
    19    32    35    1
    20    32    33    1
    21    27    26   ar
    22    26    25   ar
    23    26    30    1
    24    25    18    1
    25    22    17    1
    26    18    19   ar
    27    18    17   ar
    28    19    15   ar
    29    30    31    1
    30    17    16   ar
    31    16    15   ar
    32    16    20    1
    33    15     5    1
    34    20    21    1
    35    14     4    1
    36     5     6   ar
    37     5     4   ar
    38     6     1   ar
    39     4     3   ar
    40    11    10    1
    41     3     2   ar
    42     2     1   ar
    43     2     8    1
    44     1     9    1
    45    10     9    1
    46    10    12    1
    47    39    44    1
    48    39    37   ar
    49    36    37   ar
    50    36    46    1
    51    37    40    1
    52    46    45    3
