@<TRIPOS>MOLECULE
mol_data/noopt/geoms/mol2/6la12il(110)4al(10)4lh(70).out
 59 60 0 0 0
SMALL
GASTEIGER

@<TRIPOS>ATOM
      1 C          -4.5775   -2.0270    0.0001 C.ar    1  LIG1        0.2150
      2 C          -3.1706   -2.0270    0.0001 C.ar    1  LIG1        0.0000
      3 C          -2.5039   -0.8004    0.0001 C.ar    1  LIG1       -0.0546
      4 C          -3.2580    0.3743   -0.0001 C.ar    1  LIG1       -0.0324
      5 C          -4.6612    0.2715   -0.0003 C.ar    1  LIG1        0.1102
      6 N          -5.3207   -0.9034   -0.0001 N.ar    1  LIG1       -0.2098
      7 H          -1.4054   -0.7607   -0.0009 H       1  LIG1        0.0620
      8 H          -2.5135   -3.1487    0.0004 H       1  LIG1        0.0671
      9 O          -5.2431   -3.1437    0.0002 O.3     1  LIG1       -0.4796
     10 C          -6.6454   -2.8635    0.0002 C.3     1  LIG1        0.0804
     11 H          -7.1928   -3.7829    0.0001 H       1  LIG1        0.0660
     12 H          -6.8964   -2.2991    0.8739 H       1  LIG1        0.0660
     13 H          -6.8963   -2.2990   -0.8734 H       1  LIG1        0.0660
     14 H          -2.6846    1.5410   -0.0003 H       1  LIG1        0.0640
     15 C          -5.4065    1.3366   -0.0004 C.ar    1  LIG1        0.1604
     16 C          -6.2745    1.9296    0.8929 C.ar    1  LIG1        0.0392
     17 C          -6.7824    3.1226    0.2482 C.ar    1  LIG1        0.1688
     18 C          -6.1907    3.1796   -0.9969 C.ar    1  LIG1        0.1739
     19 O          -5.3380    2.0893   -1.1736 O.2     1  LIG1       -0.4495
     20 C          -6.5923    1.5195    2.0853 C.3     1  LIG1       -0.0325
     21 H          -5.7056    1.2374    2.6136 H       1  LIG1        0.0280
     22 H          -7.2462    0.6758    2.0098 H       1  LIG1        0.0280
     23 H          -7.0867    2.3078    2.6135 H       1  LIG1        0.0280
     24 O          -7.6311    3.9605    0.7655 O.3     1  LIG1       -0.4910
     25 C          -6.9956    5.2274    0.9554 C.3     1  LIG1        0.0790
     26 H          -7.6946    5.9168    1.3810 H       1  LIG1        0.0660
     27 H          -6.1611    5.1126    1.6152 H       1  LIG1        0.0660
     28 H          -6.6557    5.6009    0.0121 H       1  LIG1        0.0660
     29 C          -5.0822    4.6735   -2.4264 C.3     1  LIG1        0.0028
     30 C          -5.1923    5.5420   -3.5295 C.3     2  LIG2       -0.0309
     31 C          -6.2438    3.9907   -2.0114 C.2     1  LIG1        0.0063
     32 C          -6.4042    5.7237   -4.1921 C.2     1  LIG1        0.0386
     33 H          -4.3084    6.0790   -3.8663 H       1  LIG1        0.0309
     34 C          -7.4539    4.1716   -2.6725 C.2     1  LIG1       -0.0122
     35 C          -7.5430    5.0385   -3.7666 C.2     1  LIG1        0.1290
     36 H          -8.3355    3.6337   -2.3333 H       1  LIG1        0.0658
     37 H          -3.9245    4.5452   -1.8493 H       1  LIG1        0.0362
     38 O          -8.6769    5.2038   -4.3806 O.2     1  LIG1       -0.4945
     39 C          -8.8987    6.5984   -4.6060 C.3     1  LIG1        0.0788
     40 H          -9.8320    6.7340   -5.1115 H       1  LIG1        0.0660
     41 H          -8.9235    7.1119   -3.6676 H       1  LIG1        0.0660
     42 H          -8.1067    6.9928   -5.2076 H       1  LIG1        0.0660
     43 C          -6.1620    7.8986   -5.0377 C.ar    1  LIG1        0.1280
     44 C          -6.2496    8.7345   -6.1676 C.ar    1  LIG1       -0.0176
     45 C          -6.4699    6.5332   -5.2071 C.ar    1  LIG1        0.0297
     46 C          -6.6265    8.2351   -7.4123 C.ar    1  LIG1       -0.0376
     47 H          -6.0165    9.7914   -6.0592 H       1  LIG1        0.0655
     48 C          -6.8462    6.0341   -6.4494 C.ar    1  LIG1       -0.0297
     49 C          -6.9271    6.8805   -7.5601 C.ar    1  LIG1        0.0253
     50 H          -7.0788    4.9775   -6.5544 H       1  LIG1        0.0643
     51 H          -6.6970    9.0353   -8.4344 H       1  LIG1        0.0637
     52 O          -5.8045    8.4225   -3.9029 O.3     1  LIG1       -0.4945
     53 C          -4.5597    7.8553   -3.4863 C.3     1  LIG1        0.0788
     54 H          -4.2658    8.2869   -2.5523 H       1  LIG1        0.0660
     55 H          -4.6706    6.7973   -3.3710 H       1  LIG1        0.0660
     56 H          -3.8112    8.0572   -4.2237 H       1  LIG1        0.0660
     57 N          -7.2795    6.4083   -8.7189 N.pl3   1  LIG1       -0.3579
     58 H          -7.7728    7.1125   -9.2297 H       1  LIG1        0.1423
     59 H          -6.4642    6.1357   -9.2297 H       1  LIG1        0.1423
@<TRIPOS>BOND
     1    59    57    1
     2    58    57    1
     3    57    49    1
     4    51    46    1
     5    49    46   ar
     6    49    48   ar
     7    46    44   ar
     8    50    48    1
     9    48    45   ar
    10    44    47    1
    11    44    43   ar
    12    42    39    1
    13    45    43   ar
    14    45    32    1
    15    40    39    1
    16    43    52    1
    17    39    38    1
    18    39    41    1
    19    38    35    1
    20    56    53    1
    21    32    35    2
    22    52    53    1
    23    33    30    1
    24    35    34    1
    25    53    55    1
    26    53    54    1
    27    34    36    1
    28    34    31    2
    29    29    31    1
    30    29    37    1
    31    31    18    1
    32    19    18   ar
    33    19    15   ar
    34    18    17   ar
    35    13    10    1
    36     7     3    1
    37    15     5    1
    38    15    16   ar
    39    14     4    1
    40     5     6   ar
    41     5     4   ar
    42     6     1   ar
    43     4     3   ar
    44    11    10    1
    45     1     2   ar
    46     1     9    1
    47     3     2   ar
    48     2     8    1
    49    10     9    1
    50    10    12    1
    51    28    25    1
    52    17    24    1
    53    17    16   ar
    54    24    25    1
    55    16    20    1
    56    25    26    1
    57    25    27    1
    58    22    20    1
    59    20    23    1
    60    20    21    1
