@<TRIPOS>MOLECULE
mol_data/noopt/geoms/mol2/6la4hd(300)13ie(330)12ie.out
 53 56 0 0 0
SMALL
GASTEIGER

@<TRIPOS>ATOM
      1 C          -4.5775   -2.0270    0.0001 C.ar    1  LIG1        0.2149
      2 C          -3.1706   -2.0270    0.0001 C.ar    1  LIG1        0.0000
      3 C          -2.5039   -0.8004    0.0001 C.ar    1  LIG1       -0.0547
      4 C          -3.2580    0.3743   -0.0001 C.ar    1  LIG1       -0.0354
      5 C          -4.6612    0.2715   -0.0003 C.ar    1  LIG1        0.0766
      6 N          -5.3207   -0.9034   -0.0001 N.ar    1  LIG1       -0.2128
      7 H          -1.4054   -0.7607   -0.0009 H       1  LIG1        0.0620
      8 H          -2.5135   -3.1487    0.0004 H       1  LIG1        0.0671
      9 O          -5.2431   -3.1437    0.0002 O.3     1  LIG1       -0.4796
     10 C          -6.6454   -2.8635    0.0002 C.3     1  LIG1        0.0804
     11 H          -7.1928   -3.7829    0.0001 H       1  LIG1        0.0660
     12 H          -6.8964   -2.2991    0.8739 H       1  LIG1        0.0660
     13 H          -6.8963   -2.2990   -0.8734 H       1  LIG1        0.0660
     14 H          -2.6846    1.5410   -0.0003 H       1  LIG1        0.0639
     15 C          -5.3078    2.2629   -1.0587 C.ar    1  LIG1        0.0345
     16 C          -6.1356    3.4013   -1.0116 C.ar    1  LIG1       -0.0300
     17 C          -5.4065    1.3366   -0.0004 C.ar    1  LIG1        0.0223
     18 C          -7.0234    3.6099    0.0413 C.ar    1  LIG1        0.0177
     19 H          -6.0754    4.1289   -1.8180 H       1  LIG1        0.0643
     20 C          -6.2927    1.5444    1.0511 C.ar    1  LIG1       -0.0328
     21 C          -7.1069    2.6814    1.0796 C.ar    1  LIG1        0.0616
     22 H          -6.3502    0.8155    1.8554 H       1  LIG1        0.0638
     23 N          -4.4996    2.1231   -2.0674 N.pl3   1  LIG1       -0.3574
     24 H          -4.7920    1.3450   -2.6234 H       1  LIG1        0.1423
     25 H          -4.5137    2.9541   -2.6234 H       1  LIG1        0.1423
     26 N          -8.6623    3.0371    2.9344 N.1     1  LIG1       -0.1908
     27 C          -7.9334    2.8704    2.0652 C.1     1  LIG1        0.0998
     28 C          -7.7730    4.6720    0.0528 C.ar    1  LIG1        0.0524
     29 C          -7.5376    5.9227   -0.4250 C.ar    1  LIG1       -0.0091
     30 C          -8.7003    6.7118   -0.1490 C.ar    1  LIG1        0.0564
     31 C          -9.5957    5.9081    0.4839 C.ar    1  LIG1        0.0986
     32 N          -9.0318    4.6585    0.6098 N.ar    1  LIG1       -0.3505
     33 H          -9.4651    3.8714    1.0349 H       1  LIG1        0.1660
     34 C          -6.4543    6.3252   -1.0210 C.3     1  LIG1       -0.0365
     35 H          -6.2446    7.3351   -0.7361 H       1  LIG1        0.0279
     36 H          -6.5906    6.2746   -2.0811 H       1  LIG1        0.0279
     37 H          -5.6362    5.6971   -0.7362 H       1  LIG1        0.0279
     38 C          -8.8719    7.9654   -0.4473 C.1     1  LIG1       -0.0672
     39 C          -9.0304    9.1238   -0.7229 C.1     1  LIG1       -0.1138
     40 H          -9.1717   10.1556   -0.9684 H       1  LIG1        0.1232
     41 C         -10.7889    6.1635    0.9320 C.ar    1  LIG1        0.1562
     42 C         -11.4841    7.3016    1.2850 C.ar    1  LIG1        0.0122
     43 C         -12.7983    6.8691    1.7124 C.ar    1  LIG1        0.0659
     44 C         -12.8191    5.4948    1.5921 C.ar    1  LIG1        0.1082
     45 O         -11.5916    5.0362    1.1127 O.2     1  LIG1       -0.4599
     46 H         -13.6927    4.5585    1.8160 H       1  LIG1        0.1042
     47 C         -11.0660    8.5324    1.2506 C.3     1  LIG1       -0.0349
     48 H         -11.7742    9.1636    1.7454 H       1  LIG1        0.0279
     49 H         -10.9599    8.8447    0.2326 H       1  LIG1        0.0279
     50 H         -10.1197    8.6015    1.7453 H       1  LIG1        0.0279
     51 C         -13.7549    7.6468    2.1248 C.1     1  LIG1       -0.0662
     52 C         -14.6388    8.3653    2.5060 C.1     1  LIG1       -0.1138
     53 H         -15.4262    9.0054    2.8455 H       1  LIG1        0.1232
@<TRIPOS>BOND
     1    25    23    1
     2    24    23    1
     3    36    34    1
     4    23    15    1
     5    19    16    1
     6    15    16   ar
     7    15    17   ar
     8    34    37    1
     9    34    35    1
    10    34    29    1
    11    16    18   ar
    12    40    39    1
    13    13    10    1
    14    39    38    3
    15    38    30    1
    16    29    30   ar
    17    29    28   ar
    18    30    31   ar
    19     7     3    1
    20    17     5    1
    21    17    20   ar
    22    14     4    1
    23     5     6   ar
    24     5     4   ar
    25     6     1   ar
    26     4     3   ar
    27    11    10    1
    28     1     2   ar
    29     1     9    1
    30     3     2   ar
    31     2     8    1
    32    10     9    1
    33    10    12    1
    34    18    28    1
    35    18    21   ar
    36    28    32   ar
    37    49    47    1
    38    31    32   ar
    39    31    41    1
    40    32    33    1
    41    41    45   ar
    42    41    42   ar
    43    20    21   ar
    44    20    22    1
    45    21    27    1
    46    45    44   ar
    47    47    42    1
    48    47    50    1
    49    47    48    1
    50    42    43   ar
    51    44    43   ar
    52    44    46    1
    53    43    51    1
    54    27    26    3
    55    51    52    3
    56    52    53    1
