@<TRIPOS>MOLECULE
mol_data/noopt/geoms/mol2/6la6la6la.out
 41 43 0 0 0
SMALL
GASTEIGER

@<TRIPOS>ATOM
      1 C          -4.5775   -2.0270    0.0001 C.ar    1  LIG1        0.2149
      2 C          -3.1706   -2.0270    0.0001 C.ar    1  LIG1        0.0000
      3 C          -2.5039   -0.8004    0.0001 C.ar    1  LIG1       -0.0547
      4 C          -3.2580    0.3743   -0.0001 C.ar    1  LIG1       -0.0353
      5 C          -4.6612    0.2715   -0.0003 C.ar    1  LIG1        0.0799
      6 N          -5.3207   -0.9034   -0.0001 N.ar    1  LIG1       -0.2127
      7 H          -1.4054   -0.7607   -0.0009 H       1  LIG1        0.0620
      8 H          -2.5135   -3.1487    0.0004 H       1  LIG1        0.0671
      9 O          -5.2431   -3.1437    0.0002 O.3     1  LIG1       -0.4796
     10 C          -6.6454   -2.8635    0.0002 C.3     1  LIG1        0.0804
     11 H          -7.1928   -3.7829    0.0001 H       1  LIG1        0.0660
     12 H          -6.8964   -2.2991    0.8739 H       1  LIG1        0.0660
     13 H          -6.8963   -2.2990   -0.8734 H       1  LIG1        0.0660
     14 H          -2.6846    1.5410   -0.0003 H       1  LIG1        0.0639
     15 C          -6.8088    1.2233   -0.0003 C.ar    1  LIG1        0.2244
     16 C          -5.4065    1.3366   -0.0004 C.ar    1  LIG1        0.0620
     17 C          -4.8408    2.6129   -0.0003 C.ar    1  LIG1       -0.0454
     18 C          -5.6871    3.7231   -0.0003 C.ar    1  LIG1       -0.0347
     19 C          -7.0774    3.5076   -0.0004 C.ar    1  LIG1        0.0799
     20 N          -7.6401    2.2834   -0.0003 N.ar    1  LIG1       -0.2122
     21 H          -3.7491    2.7410   -0.0014 H       1  LIG1        0.0626
     22 O          -7.3823    0.0566   -0.0003 O.3     1  LIG1       -0.4792
     23 C          -8.8026    0.2229   -0.0004 C.3     1  LIG1        0.0804
     24 H          -9.2743   -0.7375   -0.0005 H       1  LIG1        0.0660
     25 H          -9.0983    0.7653    0.8734 H       1  LIG1        0.0660
     26 H          -9.0982    0.7655   -0.8739 H       1  LIG1        0.0660
     27 H          -5.2095    4.9322   -0.0004 H       1  LIG1        0.0639
     28 C          -9.2948    4.2833   -0.0001 C.ar    1  LIG1        0.2239
     29 C          -7.9061    4.5092   -0.0003 C.ar    1  LIG1        0.0619
     30 C          -7.4450    5.8270   -0.0001 C.ar    1  LIG1       -0.0460
     31 C          -8.3780    6.8653    0.0002 C.ar    1  LIG1       -0.0427
     32 C          -9.7465    6.5385    0.0002 C.ar    1  LIG1        0.0314
     33 N         -10.2087    5.2730    0.0002 N.ar    1  LIG1       -0.2208
     34 H          -6.3672    6.0425   -0.0012 H       1  LIG1        0.0626
     35 H         -10.6531    7.4701    0.0005 H       1  LIG1        0.0831
     36 O          -9.7724    3.0742   -0.0002 O.3     1  LIG1       -0.4792
     37 C         -11.2015    3.1256   -0.0003 C.3     1  LIG1        0.0804
     38 H         -11.5942    2.1302   -0.0005 H       1  LIG1        0.0660
     39 H         -11.5399    3.6423    0.8735 H       1  LIG1        0.0660
     40 H         -11.5398    3.6426   -0.8738 H       1  LIG1        0.0660
     41 H          -7.9994    8.1090    0.0002 H       1  LIG1        0.0633
@<TRIPOS>BOND
     1    26    23    1
     2    40    37    1
     3    13    10    1
     4    21    17    1
     5    34    30    1
     6     7     3    1
     7    24    23    1
     8    38    37    1
     9    16     5    1
    10    16    15   ar
    11    16    17   ar
    12    19    20   ar
    13    19    29    1
    14    19    18   ar
    15    27    18    1
    16    23    22    1
    17    23    25    1
    18    14     4    1
    19     5     6   ar
    20     5     4   ar
    21    15    22    1
    22    15    20   ar
    23    17    18   ar
    24    29    28   ar
    25    29    30   ar
    26    37    36    1
    27    37    39    1
    28    36    28    1
    29     6     1   ar
    30     4     3   ar
    31    28    33   ar
    32    30    31   ar
    33    11    10    1
    34     1     2   ar
    35     1     9    1
    36     3     2   ar
    37     2     8    1
    38    33    32   ar
    39    32    31   ar
    40    32    35    1
    41    10     9    1
    42    10    12    1
    43    31    41    1
