@<TRIPOS>MOLECULE
mol_data/noopt/geoms/mol2/6la6la.out
 28 29 0 0 0
SMALL
GASTEIGER

@<TRIPOS>ATOM
      1 C          -4.5775   -2.0270    0.0001 C.ar    1  LIG1        0.2149
      2 C          -3.1706   -2.0270    0.0001 C.ar    1  LIG1        0.0000
      3 C          -2.5039   -0.8004    0.0001 C.ar    1  LIG1       -0.0547
      4 C          -3.2580    0.3743   -0.0001 C.ar    1  LIG1       -0.0353
      5 C          -4.6612    0.2715   -0.0003 C.ar    1  LIG1        0.0799
      6 N          -5.3207   -0.9034   -0.0001 N.ar    1  LIG1       -0.2127
      7 H          -1.4054   -0.7607   -0.0009 H       1  LIG1        0.0620
      8 H          -2.5135   -3.1487    0.0004 H       1  LIG1        0.0671
      9 O          -5.2431   -3.1437    0.0002 O.3     1  LIG1       -0.4796
     10 C          -6.6454   -2.8635    0.0002 C.3     1  LIG1        0.0804
     11 H          -7.1928   -3.7829    0.0001 H       1  LIG1        0.0660
     12 H          -6.8964   -2.2991    0.8739 H       1  LIG1        0.0660
     13 H          -6.8963   -2.2990   -0.8734 H       1  LIG1        0.0660
     14 H          -2.6846    1.5410   -0.0003 H       1  LIG1        0.0639
     15 C          -6.8088    1.2233   -0.0003 C.ar    1  LIG1        0.2239
     16 C          -5.4065    1.3366   -0.0004 C.ar    1  LIG1        0.0619
     17 C          -4.8408    2.6129   -0.0003 C.ar    1  LIG1       -0.0460
     18 C          -5.6871    3.7231   -0.0003 C.ar    1  LIG1       -0.0427
     19 C          -7.0774    3.5076   -0.0004 C.ar    1  LIG1        0.0314
     20 N          -7.6401    2.2834   -0.0003 N.ar    1  LIG1       -0.2208
     21 H          -3.7491    2.7410   -0.0014 H       1  LIG1        0.0626
     22 H          -7.9061    4.5092   -0.0003 H       1  LIG1        0.0831
     23 O          -7.3823    0.0566   -0.0003 O.3     1  LIG1       -0.4792
     24 C          -8.8026    0.2229   -0.0004 C.3     1  LIG1        0.0804
     25 H          -9.2743   -0.7375   -0.0005 H       1  LIG1        0.0660
     26 H          -9.0983    0.7653    0.8734 H       1  LIG1        0.0660
     27 H          -9.0982    0.7655   -0.8739 H       1  LIG1        0.0660
     28 H          -5.2095    4.9322   -0.0004 H       1  LIG1        0.0633
@<TRIPOS>BOND
     1    27    24    1
     2    13    10    1
     3    21    17    1
     4     7     3    1
     5    25    24    1
     6    16     5    1
     7    16    15   ar
     8    16    17   ar
     9    19    20   ar
    10    19    22    1
    11    19    18   ar
    12    28    18    1
    13    24    23    1
    14    24    26    1
    15     5     6   ar
    16     5     4   ar
    17    14     4    1
    18    15    23    1
    19    15    20   ar
    20    17    18   ar
    21     6     1   ar
    22     4     3   ar
    23    11    10    1
    24     1     2   ar
    25     1     9    1
    26     3     2   ar
    27     2     8    1
    28    10     9    1
    29    10    12    1
