@<TRIPOS>MOLECULE
mol_data/noopt/geoms/mol2/6la6la6la6la.out
 54 57 0 0 0
SMALL
GASTEIGER

@<TRIPOS>ATOM
      1 C          -4.5775   -2.0270    0.0001 C.ar    1  LIG1        0.2149
      2 C          -3.1706   -2.0270    0.0001 C.ar    1  LIG1        0.0000
      3 C          -2.5039   -0.8004    0.0001 C.ar    1  LIG1       -0.0547
      4 C          -3.2580    0.3743   -0.0001 C.ar    1  LIG1       -0.0353
      5 C          -4.6612    0.2715   -0.0003 C.ar    1  LIG1        0.0799
      6 N          -5.3207   -0.9034   -0.0001 N.ar    1  LIG1       -0.2127
      7 H          -1.4054   -0.7607   -0.0009 H       1  LIG1        0.0620
      8 H          -2.5135   -3.1487    0.0004 H       1  LIG1        0.0671
      9 O          -5.2431   -3.1437    0.0002 O.3     1  LIG1       -0.4796
     10 C          -6.6454   -2.8635    0.0002 C.3     1  LIG1        0.0804
     11 H          -7.1928   -3.7829    0.0001 H       1  LIG1        0.0660
     12 H          -6.8964   -2.2991    0.8739 H       1  LIG1        0.0660
     13 H          -6.8963   -2.2990   -0.8734 H       1  LIG1        0.0660
     14 H          -2.6846    1.5410   -0.0003 H       1  LIG1        0.0639
     15 C          -6.8088    1.2233   -0.0003 C.ar    1  LIG1        0.2244
     16 C          -5.4065    1.3366   -0.0004 C.ar    1  LIG1        0.0620
     17 C          -4.8408    2.6129   -0.0003 C.ar    1  LIG1       -0.0454
     18 C          -5.6871    3.7231   -0.0003 C.ar    1  LIG1       -0.0347
     19 C          -7.0774    3.5076   -0.0004 C.ar    1  LIG1        0.0799
     20 N          -7.6401    2.2834   -0.0003 N.ar    1  LIG1       -0.2122
     21 H          -3.7491    2.7410   -0.0014 H       1  LIG1        0.0626
     22 O          -7.3823    0.0566   -0.0003 O.3     1  LIG1       -0.4792
     23 C          -8.8026    0.2229   -0.0004 C.3     1  LIG1        0.0804
     24 H          -9.2743   -0.7375   -0.0005 H       1  LIG1        0.0660
     25 H          -9.0983    0.7653    0.8734 H       1  LIG1        0.0660
     26 H          -9.0982    0.7655   -0.8739 H       1  LIG1        0.0660
     27 H          -5.2095    4.9322   -0.0004 H       1  LIG1        0.0639
     28 C          -9.2948    4.2833   -0.0001 C.ar    1  LIG1        0.2244
     29 C          -7.9061    4.5092   -0.0003 C.ar    1  LIG1        0.0620
     30 C          -7.4450    5.8270   -0.0001 C.ar    1  LIG1       -0.0454
     31 C          -8.3780    6.8653    0.0002 C.ar    1  LIG1       -0.0347
     32 C          -9.7465    6.5385    0.0002 C.ar    1  LIG1        0.0799
     33 N         -10.2087    5.2730    0.0002 N.ar    1  LIG1       -0.2122
     34 H          -6.3672    6.0425   -0.0012 H       1  LIG1        0.0626
     35 O          -9.7724    3.0742   -0.0002 O.3     1  LIG1       -0.4792
     36 C         -11.2015    3.1256   -0.0003 C.3     1  LIG1        0.0804
     37 H         -11.5942    2.1302   -0.0005 H       1  LIG1        0.0660
     38 H         -11.5399    3.6423    0.8735 H       1  LIG1        0.0660
     39 H         -11.5398    3.6426   -0.8738 H       1  LIG1        0.0660
     40 H          -7.9994    8.1090    0.0002 H       1  LIG1        0.0639
     41 C         -12.0191    7.1331    0.0008 C.ar    1  LIG1        0.2239
     42 C         -10.6531    7.4702    0.0005 C.ar    1  LIG1        0.0619
     43 C         -10.2997    8.8208    0.0008 C.ar    1  LIG1       -0.0460
     44 C         -11.3132    9.7806    0.0012 C.ar    1  LIG1       -0.0427
     45 C         -12.6510    9.3446    0.0013 C.ar    1  LIG1        0.0314
     46 N         -13.0098    8.0460    0.0012 N.ar    1  LIG1       -0.2208
     47 H          -9.2427    9.1225   -0.0004 H       1  LIG1        0.0626
     48 H         -13.6297   10.2002    0.0018 H       1  LIG1        0.0831
     49 O         -12.3978    5.8895    0.0006 O.3     1  LIG1       -0.4792
     50 C         -13.8263    5.8256    0.0005 C.3     1  LIG1        0.0804
     51 H         -14.1376    4.8018    0.0001 H       1  LIG1        0.0660
     52 H         -14.2053    6.3133    0.8743 H       1  LIG1        0.0660
     53 H         -14.2052    6.3138   -0.8730 H       1  LIG1        0.0660
     54 H         -11.0360   11.0507    0.0014 H       1  LIG1        0.0633
@<TRIPOS>BOND
     1    26    23    1
     2    39    36    1
     3    13    10    1
     4    53    50    1
     5    21    17    1
     6    34    30    1
     7     7     3    1
     8    24    23    1
     9    37    36    1
    10    47    43    1
    11    16     5    1
    12    16    15   ar
    13    16    17   ar
    14    19    20   ar
    15    19    29    1
    16    19    18   ar
    17    27    18    1
    18    23    22    1
    19    23    25    1
    20    14     4    1
    21     5     6   ar
    22     5     4   ar
    23    15    22    1
    24    15    20   ar
    25    17    18   ar
    26    29    28   ar
    27    29    30   ar
    28    36    35    1
    29    36    38    1
    30    35    28    1
    31     6     1   ar
    32     4     3   ar
    33    28    33   ar
    34    30    31   ar
    35    11    10    1
    36     1     2   ar
    37     1     9    1
    38     2     3   ar
    39     2     8    1
    40    51    50    1
    41    33    32   ar
    42    32    31   ar
    43    32    42    1
    44    10     9    1
    45    10    12    1
    46    31    40    1
    47    50    49    1
    48    50    52    1
    49    42    41   ar
    50    42    43   ar
    51    49    41    1
    52    41    46   ar
    53    43    44   ar
    54    46    45   ar
    55    44    45   ar
    56    44    54    1
    57    45    48    1
