@<TRIPOS>MOLECULE
mol_data/noopt/geoms/mol2/6la6fi-4de12ld-13la12ah12il13ee.out
 100 106 0 0 0
SMALL
GASTEIGER

@<TRIPOS>ATOM
      1 C          -4.5775   -2.0270    0.0001 C.ar    1  LIG1        0.2149
      2 C          -3.1706   -2.0270    0.0001 C.ar    1  LIG1        0.0000
      3 C          -2.5039   -0.8004    0.0001 C.ar    1  LIG1       -0.0547
      4 C          -3.2580    0.3743   -0.0001 C.ar    1  LIG1       -0.0353
      5 C          -4.6612    0.2715   -0.0003 C.ar    1  LIG1        0.0799
      6 N          -5.3207   -0.9034   -0.0001 N.ar    1  LIG1       -0.2127
      7 H          -1.4054   -0.7607   -0.0009 H       1  LIG1        0.0620
      8 H          -2.5135   -3.1487    0.0004 H       1  LIG1        0.0671
      9 O          -5.2431   -3.1437    0.0002 O.3     1  LIG1       -0.4796
     10 C          -6.6454   -2.8635    0.0002 C.3     1  LIG1        0.0804
     11 H          -7.1928   -3.7829    0.0001 H       1  LIG1        0.0660
     12 H          -6.8964   -2.2991    0.8739 H       1  LIG1        0.0660
     13 H          -6.8963   -2.2990   -0.8734 H       1  LIG1        0.0660
     14 H          -2.6846    1.5410   -0.0003 H       1  LIG1        0.0639
     15 C          -6.8087    1.2234   -0.0215 C.ar    1  LIG1        0.2223
     16 C          -5.4065    1.3366   -0.0004 C.ar    1  LIG1        0.0621
     17 C          -4.8409    2.6128    0.0206 C.ar    1  LIG1       -0.0422
     18 C          -5.6872    3.7230    0.0196 C.ar    1  LIG1       -0.0202
     19 C          -7.0774    3.5076   -0.0025 C.ar    1  LIG1        0.0787
     20 N          -7.6400    2.2835   -0.0227 N.ar    1  LIG1       -0.2122
     21 H          -3.7493    2.7408    0.0363 H       1  LIG1        0.0629
     22 O          -7.3821    0.0568   -0.0413 O.3     1  LIG1       -0.4919
     23 H          -6.7112   -0.6299   -0.0462 H       1  LIG1        0.2937
     24 C          -5.2097    4.9323    0.0384 C.3     1  LIG1       -0.0216
     25 H          -5.8939    5.5781    0.5479 H       1  LIG1        0.0854
     26 H          -5.0734    5.2776   -0.9652 H       1  LIG1        0.0317
     27 H          -4.2687    4.9363    0.5479 H       1  LIG1        0.0317
     28 C          -7.4120    5.8297   -0.0044 C.ar    1  LIG1        0.0125
     29 C          -8.3503    6.8798   -0.0048 C.ar    1  LIG1        0.0047
     30 C          -7.9061    4.5092   -0.0043 C.ar    1  LIG1        0.0111
     31 C          -9.7206    6.6286   -0.0056 C.ar    1  LIG1        0.0448
     32 H          -7.9907    7.9063   -0.0047 H       1  LIG1        0.0194
     33 C          -9.2739    4.2579   -0.0050 C.ar    1  LIG1       -0.0358
     34 C         -10.1903    5.3146   -0.0058 C.ar    1  LIG1        0.0367
     35 H          -9.6300    3.2308   -0.0048 H       1  LIG1        0.0637
     36 N          -5.0301    6.3889   -0.0036 N.2     1  LIG1       -0.1571
     37 C          -6.1464    6.1268   -0.0040 C.2     1  LIG1        0.0583
     38 C         -11.4677    5.0736   -0.0064 C.1     1  LIG1       -0.0689
     39 C         -12.6481    4.8508   -0.0069 C.1     1  LIG1       -0.1139
     40 H         -13.6996    4.6525   -0.0073 H       1  LIG1        0.1232
     41 C         -10.5589    7.6221   -0.0060 C.ar    1  LIG1        0.1843
     42 C         -10.4538    8.9975    0.0085 C.ar    1  LIG1        0.2302
     43 C         -11.8054    9.5170   -0.0026 C.ar    1  LIG1        0.0729
     44 C         -12.6472    8.4240   -0.0232 C.ar    1  LIG1        0.1643
     45 O         -11.9022    7.2443   -0.0258 O.2     1  LIG1       -0.4489
     46 O          -9.3681    9.7124    0.0284 O.3     1  LIG1       -0.2835
     47 C          -8.2282    8.8490    0.0356 C.3     2  LIG2       -0.0776
     48 H          -7.3349    9.4377    0.0518 H       1  LIG1        0.0194
     49 H          -8.2594    8.2243    0.9038 H       1  LIG1        0.0194
     50 H          -8.2373    8.2388   -0.8433 H       1  LIG1        0.0194
     51 N         -12.4234   11.8842    0.0128 N.3     1  LIG1       -0.2405
     52 C         -12.1338   10.7748    0.0056 C.3     1  LIG1        0.1168
     53 C         -13.9350    8.2470   -0.0403 C.ar    1  LIG1        0.1253
     54 C         -14.9498    9.1515   -0.0356 C.ar    1  LIG1        0.1495
     55 C         -16.1783    8.4161   -0.0605 C.ar    1  LIG1        0.0092
     56 C         -15.8602    7.0945   -0.0811 C.ar    1  LIG1        0.0863
     57 N         -14.4878    6.9865   -0.0684 N.ar    1  LIG1       -0.3464
     58 H         -13.9772    6.1338   -0.0785 H       1  LIG1        0.1662
     59 O         -14.8242   10.4452   -0.0112 O.3     1  LIG1       -0.4864
     60 C         -13.4364   10.7899   -0.0024 C.3     1  LIG1        0.1236
     61 H         -13.3334   11.8548    0.0175 H       1  LIG1        0.1417
     62 H         -12.9701   10.3703    0.8646 H       1  LIG1        0.0731
     63 H         -12.9670   10.4026   -0.8824 H       1  LIG1        0.0731
     64 H         -17.3782    8.9163   -0.0635 H       1  LIG1        0.0677
     65 C         -16.6244    6.0433   -0.1074 C.ar    1  LIG1        0.1539
     66 C         -17.9851    5.8169   -0.1273 C.ar    1  LIG1        0.0071
     67 C         -18.1663    4.3804   -0.1530 C.ar    1  LIG1        0.0747
     68 C         -16.9037    3.8241   -0.1472 C.ar    1  LIG1        0.1915
     69 O         -15.9364    4.8292   -0.1193 O.2     1  LIG1       -0.4483
     70 H         -18.9388    6.7003   -0.1241 H       1  LIG1        0.0675
     71 N         -19.3091    3.7612   -0.1767 N.pl3   1  LIG1       -0.3549
     72 H         -19.9835    4.3245   -0.6541 H       1  LIG1        0.1424
     73 H         -19.2057    2.8887   -0.6542 H       1  LIG1        0.1424
     74 C         -16.4238    2.6160   -0.1612 C.ar    1  LIG1        0.1790
     75 C         -16.9598    1.3448   -0.1571 C.ar    1  LIG1        0.0408
     76 C         -15.8428    0.4236   -0.1815 C.ar    1  LIG1        0.1707
     77 C         -14.6978    1.1933   -0.1990 C.ar    1  LIG1        0.1947
     78 O         -15.0301    2.5484   -0.1871 O.2     1  LIG1       -0.4461
     79 C         -18.2163    1.0110   -0.1356 C.3     1  LIG1       -0.0325
     80 H         -18.3286    0.0772    0.3747 H       1  LIG1        0.0280
     81 H         -18.5771    0.9151   -1.1384 H       1  LIG1        0.0280
     82 H         -18.7772    1.7660    0.3746 H       1  LIG1        0.0280
     83 O         -15.9304   -0.8734   -0.1856 O.3     1  LIG1       -0.4910
     84 C         -17.3074   -1.2588   -0.1872 C.3     1  LIG1        0.0790
     85 H         -17.3791   -2.3264   -0.1907 H       1  LIG1        0.0660
     86 H         -17.7871   -0.8721    0.6877 H       1  LIG1        0.0660
     87 H         -17.7867   -0.8663   -1.0596 H       1  LIG1        0.0660
     88 C         -13.4205    0.9530   -0.2233 C.ar    1  LIG1        0.1026
     89 C         -12.7451   -0.2266   -0.2402 C.ar    1  LIG1        0.0684
     90 C         -11.3468    0.0814   -0.2635 C.ar    1  LIG1        0.0580
     91 C         -11.2292    1.4357   -0.2617 C.ar    1  LIG1        0.0189
     92 N         -12.4963    1.9733   -0.2366 N.ar    1  LIG1       -0.3560
     93 H         -12.7100    2.9440   -0.2299 H       1  LIG1        0.1655
     94 H         -10.1709    2.1905   -0.2780 H       1  LIG1        0.0820
     95 C         -13.2747   -1.4139   -0.2345 C.1     1  LIG1       -0.0662
     96 C         -13.7640   -2.5109   -0.2292 C.1     1  LIG1       -0.1138
     97 H         -14.1999   -3.4881   -0.2245 H       1  LIG1        0.1232
     98 C         -10.3677   -0.7736   -0.2834 C.1     1  LIG1       -0.0669
     99 C          -9.4629   -1.5635   -0.3017 C.1     1  LIG1       -0.1138
    100 H          -8.6570   -2.2671   -0.3180 H       1  LIG1        0.1232
@<TRIPOS>BOND
     1    81    79    1
     2    87    84    1
     3    26    24    1
     4    63    60    1
     5    13    10    1
     6    50    47    1
     7    73    71    1
     8    72    71    1
     9   100    99    1
    10    99    98    3
    11    98    90    1
    12    94    91    1
    13    90    91   ar
    14    90    89   ar
    15    91    92   ar
    16    89    95    1
    17    89    88   ar
    18    92    93    1
    19    92    88   ar
    20    95    96    3
    21    96    97    1
    22    88    77    1
    23    77    78   ar
    24    77    76   ar
    25    85    84    1
    26    84    83    1
    27    84    86    1
    28    78    74   ar
    29    83    76    1
    30    76    75   ar
    31    71    67    1
    32    74    75   ar
    33    74    68    1
    34    75    79    1
    35    67    68   ar
    36    67    66   ar
    37    68    69   ar
    38    79    82    1
    39    79    80    1
    40    66    70    1
    41    66    65   ar
    42    69    65   ar
    43    65    56    1
    44    56    57   ar
    45    56    55   ar
    46    58    57    1
    47    57    53   ar
    48    64    55    1
    49    55    54   ar
    50    23    22    1
    51    22    15    1
    52    53    54   ar
    53    53    44    1
    54    54    59    1
    55    45    44   ar
    56    45    41   ar
    57    44    43   ar
    58    20    15   ar
    59    20    19   ar
    60    15    16   ar
    61    59    60    1
    62    40    39    1
    63    39    38    3
    64    38    34    1
    65    41    31    1
    66    41    42   ar
    67    34    31   ar
    68    34    33   ar
    69    31    29   ar
    70    33    35    1
    71    33    30   ar
    72    29    28   ar
    73    32    47    1
    74    28    30   ar
    75    28    37    1
    76    30    19    1
    77    37    36    2
    78    37    25    1
    79    43    52    1
    80    43    42   ar
    81    19    18   ar
    82    60    62    1
    83     7     3    1
    84    16     5    1
    85    16    17   ar
    86    14     4    1
    87     5     6   ar
    88     5     4   ar
    89     6     1   ar
    90     4     3   ar
    91    11    10    1
    92     1     2   ar
    93     1     9    1
    94     3     2   ar
    95     2     8    1
    96    10     9    1
    97    10    12    1
    98    52    51    1
    99    42    46    1
   100    51    61    1
   101    18    17   ar
   102    18    24    1
   103    17    21    1
   104    47    48    1
   105    47    49    1
   106    24    27    1
