@<TRIPOS>MOLECULE
mol_data/noopt/geoms/mol2/6ld13ia6ad-13he.out
 49 52 0 0 0
SMALL
GASTEIGER

@<TRIPOS>ATOM
      1 C          -4.5775   -2.0270    0.0001 C.ar    1  LIG1        0.2151
      2 C          -3.1706   -2.0270    0.0001 C.ar    1  LIG1        0.0012
      3 C          -2.5039   -0.8004    0.0001 C.ar    1  LIG1       -0.0372
      4 C          -3.2580    0.3743   -0.0001 C.ar    1  LIG1        0.0794
      5 C          -4.6612    0.2715   -0.0003 C.ar    1  LIG1        0.1085
      6 N          -5.3207   -0.9034   -0.0001 N.ar    1  LIG1       -0.2101
      7 H          -1.4054   -0.7607   -0.0009 H       1  LIG1        0.0633
      8 H          -2.5135   -3.1487    0.0004 H       1  LIG1        0.0671
      9 O          -5.2431   -3.1437    0.0002 O.3     1  LIG1       -0.4796
     10 C          -6.6454   -2.8635    0.0002 C.3     1  LIG1        0.0804
     11 H          -7.1928   -3.7829    0.0001 H       1  LIG1        0.0660
     12 H          -6.8964   -2.2991    0.8739 H       1  LIG1        0.0660
     13 H          -6.8963   -2.2990   -0.8734 H       1  LIG1        0.0660
     14 N          -2.1789    2.5700   -0.0005 N.1     1  LIG1       -0.1908
     15 C          -2.6846    1.5410   -0.0003 C.1     1  LIG1        0.1014
     16 C          -5.4065    1.3366   -0.0004 C.ar    1  LIG1        0.0697
     17 C          -5.0646    2.6523   -0.0008 C.ar    1  LIG1       -0.0231
     18 C          -6.2797    3.4100    0.0004 C.ar    1  LIG1       -0.0328
     19 C          -7.3108    2.5240   -0.0003 C.ar    1  LIG1        0.0487
     20 N          -6.7806    1.2535   -0.0003 N.ar    1  LIG1       -0.3527
     21 H          -7.3066    0.4100   -0.0008 H       1  LIG1        0.1660
     22 C          -3.8556    3.1309   -0.0007 C.3     1  LIG1       -0.0376
     23 H          -3.8455    4.0745    0.5037 H       1  LIG1        0.0278
     24 H          -3.5239    3.2623   -1.0095 H       1  LIG1        0.0278
     25 H          -3.2024    2.4498    0.5037 H       1  LIG1        0.0278
     26 H          -6.3821    4.7060    0.0014 H       1  LIG1        0.0642
     27 C          -9.4850    1.6348   -0.0205 C.ar    1  LIG1        0.0375
     28 C          -8.5952    2.7244    0.0002 C.ar    1  LIG1        0.0177
     29 C          -9.1237    4.0164    0.0215 C.ar    1  LIG1       -0.0316
     30 C         -10.5106    4.1753    0.0211 C.ar    1  LIG1        0.0798
     31 C         -11.3184    3.0235   -0.0007 C.ar    1  LIG1        0.1062
     32 N         -10.8254    1.7698   -0.0212 N.ar    1  LIG1       -0.2515
     33 H          -8.4597    4.8923    0.0370 H       1  LIG1        0.0638
     34 H          -9.0410    0.4132   -0.0407 H       1  LIG1        0.0836
     35 N         -11.5289    6.3996    0.0571 N.1     1  LIG1       -0.1908
     36 C         -11.0517    5.3571    0.0403 C.1     1  LIG1        0.1014
     37 C         -12.6148    3.1199   -0.0019 C.ar    1  LIG1        0.0884
     38 C         -13.4177    4.2167    0.0136 C.ar    1  LIG1        0.0673
     39 C         -14.7731    3.7547    0.0047 C.ar    1  LIG1        0.0632
     40 C         -14.7389    2.3959   -0.0175 C.ar    1  LIG1        0.0195
     41 N         -13.4195    2.0030   -0.0212 N.ar    1  LIG1       -0.3568
     42 H         -13.0987    1.0623   -0.0361 H       1  LIG1        0.1655
     43 H         -15.7065    1.5279   -0.0328 H       1  LIG1        0.0820
     44 N         -13.0239    5.4555    0.0343 N.pl3   1  LIG1       -0.3553
     45 H         -12.1425    5.5328   -0.4318 H       1  LIG1        0.1424
     46 H         -13.6987    6.0276   -0.4318 H       1  LIG1        0.1424
     47 C         -15.8417    4.4950    0.0154 C.1     1  LIG1       -0.0663
     48 C         -16.8291    5.1790    0.0254 C.1     1  LIG1       -0.1138
     49 H         -17.7086    5.7883    0.0342 H       1  LIG1        0.1232
@<TRIPOS>BOND
     1    24    22    1
     2    13    10    1
     3    46    44    1
     4    45    44    1
     5    34    27    1
     6    42    41    1
     7    43    40    1
     8    32    27   ar
     9    32    31   ar
    10    41    40   ar
    11    41    37   ar
    12    27    28   ar
    13    40    39   ar
    14    37    31    1
    15    37    38   ar
    16     7     3    1
    17    17    22    1
    18    17    16   ar
    19    17    18   ar
    20    21    20    1
    21    22    25    1
    22    22    23    1
    23    31    30   ar
    24    14    15    3
    25    16     5    1
    26    16    20   ar
    27    15     4    1
    28     5     4   ar
    29     5     6   ar
    30    20    19   ar
    31    19    28    1
    32    19    18   ar
    33     4     3   ar
    34     6     1   ar
    35    11    10    1
    36     2     3   ar
    37     2     1   ar
    38     2     8    1
    39     1     9    1
    40    10     9    1
    41    10    12    1
    42    28    29   ar
    43    18    26    1
    44    39    38   ar
    45    39    47    1
    46    38    44    1
    47    47    48    3
    48    30    29   ar
    49    30    36    1
    50    29    33    1
    51    48    49    1
    52    36    35    3
