@<TRIPOS>MOLECULE
mol_data/noopt/geoms/mol2/6ld12fd13dh-6df.out
 47 50 0 0 0
SMALL
GASTEIGER

@<TRIPOS>ATOM
      1 C          -4.5775   -2.0270    0.0001 C.ar    1  LIG1        0.2151
      2 C          -3.1706   -2.0270    0.0001 C.ar    1  LIG1        0.0012
      3 C          -2.5039   -0.8004    0.0001 C.ar    1  LIG1       -0.0371
      4 C          -3.2580    0.3743   -0.0001 C.ar    1  LIG1        0.0811
      5 C          -4.6612    0.2715   -0.0003 C.ar    1  LIG1        0.1308
      6 N          -5.3207   -0.9034   -0.0001 N.ar    1  LIG1       -0.2084
      7 H          -1.4054   -0.7607   -0.0009 H       1  LIG1        0.0633
      8 H          -2.5135   -3.1487    0.0004 H       1  LIG1        0.0671
      9 O          -5.2431   -3.1437    0.0002 O.3     1  LIG1       -0.4796
     10 C          -6.6454   -2.8635    0.0002 C.3     1  LIG1        0.0804
     11 H          -7.1928   -3.7829    0.0001 H       1  LIG1        0.0660
     12 H          -6.8964   -2.2991    0.8739 H       1  LIG1        0.0660
     13 H          -6.8963   -2.2990   -0.8734 H       1  LIG1        0.0660
     14 N          -2.1789    2.5700   -0.0005 N.1     1  LIG1       -0.1908
     15 C          -2.6846    1.5410   -0.0003 C.1     1  LIG1        0.1014
     16 C          -5.4065    1.3366   -0.0004 C.ar    1  LIG1        0.1977
     17 C          -5.1776    2.6970   -0.0005 C.ar    1  LIG1        0.1827
     18 C          -6.4770    3.3362   -0.0006 C.ar    1  LIG1        0.1409
     19 C          -7.4141    2.3236   -0.0007 C.ar    1  LIG1        0.1742
     20 O          -6.7786    1.0814   -0.0006 O.2     1  LIG1       -0.4466
     21 O          -4.0318    3.3111   -0.0004 O.3     1  LIG1       -0.5023
     22 H          -4.1768    4.2601   -0.0003 H       1  LIG1        0.2923
     23 N          -6.8788    5.7496   -0.0007 N.1     1  LIG1       -0.1906
     24 C          -6.6905    4.6186   -0.0007 C.1     1  LIG1        0.1067
     25 C          -8.7127    2.2633   -0.0007 C.ar    1  LIG1        0.1034
     26 C          -9.6417    3.2558   -0.0011 C.ar    1  LIG1        0.1012
     27 C         -10.9317    2.6341    0.0002 C.ar    1  LIG1        0.0686
     28 C         -10.7343    1.2890   -0.0005 C.ar    1  LIG1        0.0721
     29 N          -9.3772    1.0577   -0.0006 N.ar    1  LIG1       -0.3491
     30 H          -8.9457    0.1622   -0.0011 H       1  LIG1        0.1661
     31 N          -9.1862    5.6596   -0.0009 N.1     1  LIG1       -0.1907
     32 C          -9.3997    4.5330   -0.0010 C.1     1  LIG1        0.1033
     33 N         -12.0816    3.2405    0.0012 N.pl3   1  LIG1       -0.3553
     34 H         -11.9958    4.1184   -0.4699 H       1  LIG1        0.1424
     35 H         -12.7576    2.6740   -0.4699 H       1  LIG1        0.1424
     36 C         -11.1454   -1.0238    0.0005 C.ar    1  LIG1        0.1494
     37 C         -11.5905    0.3108    0.0000 C.ar    1  LIG1        0.0394
     38 C         -12.9650    0.5552    0.0005 C.ar    1  LIG1       -0.0068
     39 C         -13.8408   -0.5318    0.0011 C.ar    1  LIG1        0.1356
     40 C         -13.2993   -1.8304    0.0013 C.ar    1  LIG1        0.0705
     41 N         -11.9761   -2.0843    0.0011 N.ar    1  LIG1       -0.2403
     42 H         -13.3502    1.5847   -0.0009 H       1  LIG1        0.0662
     43 H         -14.0739   -2.8744    0.0020 H       1  LIG1        0.0867
     44 N          -8.7554   -1.5472   -0.0001 N.1     1  LIG1       -0.1893
     45 C          -9.8755   -1.3019    0.0002 C.1     1  LIG1        0.1198
     46 O         -15.1290   -0.3570    0.0014 O.3     1  LIG1       -0.5052
     47 H         -15.5682   -1.2106    0.0014 H       1  LIG1        0.2922
@<TRIPOS>BOND
     1    13    10    1
     2    35    33    1
     3    34    33    1
     4    26    32    1
     5    26    25   ar
     6    26    27   ar
     7    30    29    1
     8    32    31    3
     9     7     3    1
    10    42    38    1
    11    23    24    3
    12    25    19    1
    13    25    29   ar
    14    24    18    1
    15    19    20   ar
    16    19    18   ar
    17    20    16   ar
    18    18    17   ar
    19    29    28   ar
    20    28    37    1
    21    28    27   ar
    22    14    15    3
    23    17    16   ar
    24    17    21    1
    25    16     5    1
    26    21    22    1
    27    15     4    1
    28     5     6   ar
    29     5     4   ar
    30     6     1   ar
    31     4     3   ar
    32    44    45    3
    33    37    36   ar
    34    37    38   ar
    35    11    10    1
    36     1     2   ar
    37     1     9    1
    38     2     3   ar
    39     2     8    1
    40    27    33    1
    41    10     9    1
    42    10    12    1
    43    45    36    1
    44    36    41   ar
    45    38    39   ar
    46    41    40   ar
    47    39    40   ar
    48    39    46    1
    49    40    43    1
    50    46    47    1
