@<TRIPOS>MOLECULE
mol_data/noopt/geoms/mol2/6ld12ae12ee-13fh.out
 47 50 0 0 0
SMALL
GASTEIGER

@<TRIPOS>ATOM
      1 C          -4.5775   -2.0270    0.0001 C.ar    1  LIG1        0.2151
      2 C          -3.1706   -2.0270    0.0001 C.ar    1  LIG1        0.0012
      3 C          -2.5039   -0.8004    0.0001 C.ar    1  LIG1       -0.0371
      4 C          -3.2580    0.3743   -0.0001 C.ar    1  LIG1        0.0809
      5 C          -4.6612    0.2715   -0.0003 C.ar    1  LIG1        0.1271
      6 N          -5.3207   -0.9034   -0.0001 N.ar    1  LIG1       -0.2085
      7 H          -1.4054   -0.7607   -0.0009 H       1  LIG1        0.0633
      8 H          -2.5135   -3.1487    0.0004 H       1  LIG1        0.0671
      9 O          -5.2431   -3.1437    0.0002 O.3     1  LIG1       -0.4796
     10 C          -6.6454   -2.8635    0.0002 C.3     1  LIG1        0.0804
     11 H          -7.1928   -3.7829    0.0001 H       1  LIG1        0.0660
     12 H          -6.8964   -2.2991    0.8739 H       1  LIG1        0.0660
     13 H          -6.8963   -2.2990   -0.8734 H       1  LIG1        0.0660
     14 N          -2.1789    2.5700   -0.0005 N.1     1  LIG1       -0.1908
     15 C          -2.6846    1.5410   -0.0003 C.1     1  LIG1        0.1014
     16 C          -5.4065    1.3366   -0.0004 C.ar    1  LIG1        0.1565
     17 C          -5.1776    2.6970   -0.0005 C.ar    1  LIG1        0.0019
     18 C          -6.4770    3.3362   -0.0006 C.ar    1  LIG1        0.0741
     19 C          -7.4141    2.3236   -0.0007 C.ar    1  LIG1        0.1872
     20 O          -6.7786    1.0814   -0.0006 O.2     1  LIG1       -0.4488
     21 H          -4.0318    3.3111   -0.0004 H       1  LIG1        0.0668
     22 C          -6.6905    4.6186   -0.0007 C.1     1  LIG1       -0.0657
     23 C          -6.8877    5.8035   -0.0007 C.1     1  LIG1       -0.1138
     24 H          -7.0635    6.8590   -0.0008 H       1  LIG1        0.1232
     25 C          -8.7127    2.2633   -0.0007 C.ar    1  LIG1        0.1884
     26 C          -9.7399    3.1841   -0.0007 C.ar    1  LIG1        0.0895
     27 C         -10.9748    2.4279   -0.0008 C.ar    1  LIG1        0.0880
     28 C         -10.6202    1.0946   -0.0009 C.ar    1  LIG1        0.1721
     29 O          -9.2307    0.9674   -0.0009 O.2     1  LIG1       -0.4476
     30 C          -9.6461    4.4807   -0.0006 C.1     1  LIG1       -0.0645
     31 C          -9.5594    5.6788   -0.0005 C.1     1  LIG1       -0.1138
     32 H          -9.4823    6.7460   -0.0005 H       1  LIG1        0.1232
     33 C         -12.1726    2.9332   -0.0008 C.1     1  LIG1       -0.0646
     34 C         -13.2794    3.4001   -0.0009 C.1     1  LIG1       -0.1138
     35 H         -14.2652    3.8160   -0.0009 H       1  LIG1        0.1232
     36 C         -11.2636   -0.0350   -0.0009 C.ar    1  LIG1        0.1272
     37 C         -12.5990   -0.2894   -0.0013 C.ar    1  LIG1        0.1659
     38 C         -12.7634   -1.7119   -0.0000 C.ar    1  LIG1        0.0849
     39 C         -11.5213   -2.2643   -0.0007 C.ar    1  LIG1        0.0268
     40 N         -10.6001   -1.2412   -0.0008 N.ar    1  LIG1       -0.3536
     41 H          -9.6127   -1.3554   -0.0013 H       1  LIG1        0.1656
     42 H         -11.1525   -3.5109   -0.0001 H       1  LIG1        0.0827
     43 O         -13.5490    0.5982   -0.0012 O.3     1  LIG1       -0.5030
     44 H         -14.4009    0.1556   -0.0012 H       1  LIG1        0.2923
     45 N         -13.8908   -2.3593    0.0011 N.pl3   1  LIG1       -0.3540
     46 H         -14.5868   -1.8174   -0.4700 H       1  LIG1        0.1425
     47 H         -13.7736   -3.2335   -0.4701 H       1  LIG1        0.1425
@<TRIPOS>BOND
     1    13    10    1
     2    47    45    1
     3    46    45    1
     4    41    40    1
     5    37    43    1
     6    37    36   ar
     7    37    38   ar
     8    43    44    1
     9    35    34    1
    10    29    28   ar
    11    29    25   ar
    12    36    28    1
    13    36    40   ar
    14     7     3    1
    15    34    33    3
    16    28    27   ar
    17    33    27    1
    18    24    23    1
    19    27    26   ar
    20    40    39   ar
    21    23    22    3
    22    26    25   ar
    23    26    30    1
    24    25    19    1
    25    39    42    1
    26    39    38   ar
    27    22    18    1
    28    19    20   ar
    29    19    18   ar
    30    20    16   ar
    31    30    31    3
    32    18    17   ar
    33    31    32    1
    34    17    16   ar
    35    17    21    1
    36    14    15    3
    37    16     5    1
    38    15     4    1
    39     5     6   ar
    40     5     4   ar
    41     6     1   ar
    42     4     3   ar
    43    38    45    1
    44    11    10    1
    45     1     2   ar
    46     1     9    1
    47     3     2   ar
    48     2     8    1
    49    10     9    1
    50    10    12    1
