@<TRIPOS>MOLECULE
mol_data/noopt/geoms/mol2/6ld6ld6ld.out
 44 46 0 0 0
SMALL
GASTEIGER

@<TRIPOS>ATOM
      1 C          -4.5775   -2.0270    0.0001 C.ar    1  LIG1        0.2150
      2 C          -3.1706   -2.0270    0.0001 C.ar    1  LIG1        0.0012
      3 C          -2.5039   -0.8004    0.0001 C.ar    1  LIG1       -0.0372
      4 C          -3.2580    0.3743   -0.0001 C.ar    1  LIG1        0.0781
      5 C          -4.6612    0.2715   -0.0003 C.ar    1  LIG1        0.0972
      6 N          -5.3207   -0.9034   -0.0001 N.ar    1  LIG1       -0.2114
      7 H          -1.4054   -0.7607   -0.0009 H       1  LIG1        0.0633
      8 H          -2.5135   -3.1487    0.0004 H       1  LIG1        0.0671
      9 O          -5.2431   -3.1437    0.0002 O.3     1  LIG1       -0.4796
     10 C          -6.6454   -2.8635    0.0002 C.3     1  LIG1        0.0804
     11 H          -7.1928   -3.7829    0.0001 H       1  LIG1        0.0660
     12 H          -6.8964   -2.2991    0.8739 H       1  LIG1        0.0660
     13 H          -6.8963   -2.2990   -0.8734 H       1  LIG1        0.0660
     14 N          -2.1789    2.5700   -0.0005 N.1     1  LIG1       -0.1908
     15 C          -2.6846    1.5410   -0.0003 C.1     1  LIG1        0.1013
     16 C          -6.8088    1.2233   -0.0003 C.ar    1  LIG1        0.2245
     17 C          -5.4065    1.3366   -0.0004 C.ar    1  LIG1        0.0645
     18 C          -4.8408    2.6129   -0.0003 C.ar    1  LIG1       -0.0279
     19 C          -5.6871    3.7231   -0.0003 C.ar    1  LIG1        0.0787
     20 C          -7.0774    3.5076   -0.0004 C.ar    1  LIG1        0.0973
     21 N          -7.6401    2.2834   -0.0003 N.ar    1  LIG1       -0.2109
     22 H          -3.7491    2.7410   -0.0014 H       1  LIG1        0.0639
     23 O          -7.3823    0.0566   -0.0003 O.3     1  LIG1       -0.4792
     24 C          -8.8026    0.2229   -0.0004 C.3     1  LIG1        0.0804
     25 H          -9.2743   -0.7375   -0.0005 H       1  LIG1        0.0660
     26 H          -9.0983    0.7653    0.8734 H       1  LIG1        0.0660
     27 H          -9.0982    0.7655   -0.8739 H       1  LIG1        0.0660
     28 N          -4.7883    5.9986   -0.0004 N.1     1  LIG1       -0.1908
     29 C          -5.2095    4.9322   -0.0004 C.1     1  LIG1        0.1013
     30 C          -9.2948    4.2833   -0.0001 C.ar    1  LIG1        0.2240
     31 C          -7.9061    4.5092   -0.0003 C.ar    1  LIG1        0.0644
     32 C          -7.4450    5.8270   -0.0001 C.ar    1  LIG1       -0.0285
     33 C          -8.3780    6.8653    0.0002 C.ar    1  LIG1        0.0707
     34 C          -9.7465    6.5385    0.0002 C.ar    1  LIG1        0.0488
     35 N         -10.2087    5.2730    0.0002 N.ar    1  LIG1       -0.2195
     36 H          -6.3672    6.0425   -0.0012 H       1  LIG1        0.0639
     37 H         -10.6531    7.4701    0.0005 H       1  LIG1        0.0844
     38 O          -9.7724    3.0742   -0.0002 O.3     1  LIG1       -0.4792
     39 C         -11.2015    3.1256   -0.0003 C.3     1  LIG1        0.0804
     40 H         -11.5942    2.1302   -0.0005 H       1  LIG1        0.0660
     41 H         -11.5399    3.6423    0.8735 H       1  LIG1        0.0660
     42 H         -11.5398    3.6426   -0.8738 H       1  LIG1        0.0660
     43 N          -7.6654    9.2059    0.0002 N.1     1  LIG1       -0.1908
     44 C          -7.9994    8.1090    0.0002 C.1     1  LIG1        0.1007
@<TRIPOS>BOND
     1    27    24    1
     2    42    39    1
     3    13    10    1
     4    22    18    1
     5    36    32    1
     6     7     3    1
     7    25    24    1
     8    40    39    1
     9    14    15    3
    10    28    29    3
    11    17     5    1
    12    17    16   ar
    13    17    18   ar
    14    20    21   ar
    15    20    31    1
    16    20    19   ar
    17    29    19    1
    18    24    23    1
    19    24    26    1
    20    15     4    1
    21     5     6   ar
    22     5     4   ar
    23    16    23    1
    24    16    21   ar
    25    18    19   ar
    26    31    30   ar
    27    31    32   ar
    28    39    38    1
    29    39    41    1
    30    38    30    1
    31     6     1   ar
    32     4     3   ar
    33    30    35   ar
    34    32    33   ar
    35    11    10    1
    36     1     2   ar
    37     1     9    1
    38     3     2   ar
    39     2     8    1
    40    35    34   ar
    41    34    33   ar
    42    34    37    1
    43    10     9    1
    44    10    12    1
    45    33    44    1
    46    44    43    3
