@<TRIPOS>MOLECULE
mol_data/noopt/geoms/mol2/6ld6ld6ld6ld.out
 58 61 0 0 0
SMALL
GASTEIGER

@<TRIPOS>ATOM
      1 C          -4.5775   -2.0270    0.0001 C.ar    1  LIG1        0.2150
      2 C          -3.1706   -2.0270    0.0001 C.ar    1  LIG1        0.0012
      3 C          -2.5039   -0.8004    0.0001 C.ar    1  LIG1       -0.0372
      4 C          -3.2580    0.3743   -0.0001 C.ar    1  LIG1        0.0781
      5 C          -4.6612    0.2715   -0.0003 C.ar    1  LIG1        0.0972
      6 N          -5.3207   -0.9034   -0.0001 N.ar    1  LIG1       -0.2114
      7 H          -1.4054   -0.7607   -0.0009 H       1  LIG1        0.0633
      8 H          -2.5135   -3.1487    0.0004 H       1  LIG1        0.0671
      9 O          -5.2431   -3.1437    0.0002 O.3     1  LIG1       -0.4796
     10 C          -6.6454   -2.8635    0.0002 C.3     1  LIG1        0.0804
     11 H          -7.1928   -3.7829    0.0001 H       1  LIG1        0.0660
     12 H          -6.8964   -2.2991    0.8739 H       1  LIG1        0.0660
     13 H          -6.8963   -2.2990   -0.8734 H       1  LIG1        0.0660
     14 N          -2.1789    2.5700   -0.0005 N.1     1  LIG1       -0.1908
     15 C          -2.6846    1.5410   -0.0003 C.1     1  LIG1        0.1013
     16 C          -6.8088    1.2233   -0.0003 C.ar    1  LIG1        0.2245
     17 C          -5.4065    1.3366   -0.0004 C.ar    1  LIG1        0.0645
     18 C          -4.8408    2.6129   -0.0003 C.ar    1  LIG1       -0.0279
     19 C          -5.6871    3.7231   -0.0003 C.ar    1  LIG1        0.0787
     20 C          -7.0774    3.5076   -0.0004 C.ar    1  LIG1        0.0973
     21 N          -7.6401    2.2834   -0.0003 N.ar    1  LIG1       -0.2109
     22 H          -3.7491    2.7410   -0.0014 H       1  LIG1        0.0639
     23 O          -7.3823    0.0566   -0.0003 O.3     1  LIG1       -0.4792
     24 C          -8.8026    0.2229   -0.0004 C.3     1  LIG1        0.0804
     25 H          -9.2743   -0.7375   -0.0005 H       1  LIG1        0.0660
     26 H          -9.0983    0.7653    0.8734 H       1  LIG1        0.0660
     27 H          -9.0982    0.7655   -0.8739 H       1  LIG1        0.0660
     28 N          -4.7883    5.9986   -0.0004 N.1     1  LIG1       -0.1908
     29 C          -5.2095    4.9322   -0.0004 C.1     1  LIG1        0.1013
     30 C          -9.2948    4.2833   -0.0001 C.ar    1  LIG1        0.2245
     31 C          -7.9061    4.5092   -0.0003 C.ar    1  LIG1        0.0645
     32 C          -7.4450    5.8270   -0.0001 C.ar    1  LIG1       -0.0279
     33 C          -8.3780    6.8653    0.0002 C.ar    1  LIG1        0.0787
     34 C          -9.7465    6.5385    0.0002 C.ar    1  LIG1        0.0973
     35 N         -10.2087    5.2730    0.0002 N.ar    1  LIG1       -0.2109
     36 H          -6.3672    6.0425   -0.0012 H       1  LIG1        0.0639
     37 O          -9.7724    3.0742   -0.0002 O.3     1  LIG1       -0.4792
     38 C         -11.2015    3.1256   -0.0003 C.3     1  LIG1        0.0804
     39 H         -11.5942    2.1302   -0.0005 H       1  LIG1        0.0660
     40 H         -11.5399    3.6423    0.8735 H       1  LIG1        0.0660
     41 H         -11.5398    3.6426   -0.8738 H       1  LIG1        0.0660
     42 N          -7.6654    9.2059    0.0002 N.1     1  LIG1       -0.1908
     43 C          -7.9994    8.1090    0.0002 C.1     1  LIG1        0.1013
     44 C         -12.0191    7.1331    0.0008 C.ar    1  LIG1        0.2240
     45 C         -10.6531    7.4702    0.0005 C.ar    1  LIG1        0.0644
     46 C         -10.2997    8.8208    0.0008 C.ar    1  LIG1       -0.0285
     47 C         -11.3132    9.7806    0.0012 C.ar    1  LIG1        0.0707
     48 C         -12.6510    9.3446    0.0013 C.ar    1  LIG1        0.0488
     49 N         -13.0098    8.0460    0.0012 N.ar    1  LIG1       -0.2195
     50 H          -9.2427    9.1225   -0.0004 H       1  LIG1        0.0639
     51 H         -13.6297   10.2002    0.0018 H       1  LIG1        0.0844
     52 O         -12.3978    5.8895    0.0006 O.3     1  LIG1       -0.4792
     53 C         -13.8263    5.8256    0.0005 C.3     1  LIG1        0.0804
     54 H         -14.1376    4.8018    0.0001 H       1  LIG1        0.0660
     55 H         -14.2053    6.3133    0.8743 H       1  LIG1        0.0660
     56 H         -14.2052    6.3138   -0.8730 H       1  LIG1        0.0660
     57 N         -10.7915   12.1709    0.0015 N.1     1  LIG1       -0.1908
     58 C         -11.0360   11.0507    0.0014 C.1     1  LIG1        0.1007
@<TRIPOS>BOND
     1    27    24    1
     2    41    38    1
     3    13    10    1
     4    56    53    1
     5    22    18    1
     6    36    32    1
     7     7     3    1
     8    25    24    1
     9    39    38    1
    10    14    15    3
    11    50    46    1
    12    28    29    3
    13    17     5    1
    14    17    16   ar
    15    17    18   ar
    16    20    21   ar
    17    20    31    1
    18    20    19   ar
    19    29    19    1
    20    24    23    1
    21    24    26    1
    22    15     4    1
    23     5     6   ar
    24     5     4   ar
    25    16    23    1
    26    16    21   ar
    27    18    19   ar
    28    31    30   ar
    29    31    32   ar
    30    38    37    1
    31    38    40    1
    32    37    30    1
    33     6     1   ar
    34     4     3   ar
    35    30    35   ar
    36    32    33   ar
    37    11    10    1
    38     1     2   ar
    39     1     9    1
    40     2     3   ar
    41     2     8    1
    42    54    53    1
    43    35    34   ar
    44    34    33   ar
    45    34    45    1
    46    10     9    1
    47    10    12    1
    48    33    43    1
    49    43    42    3
    50    53    52    1
    51    53    55    1
    52    45    44   ar
    53    45    46   ar
    54    52    44    1
    55    44    49   ar
    56    46    47   ar
    57    49    48   ar
    58    47    48   ar
    59    47    58    1
    60    48    51    1
    61    58    57    3
