@<TRIPOS>MOLECULE
mol_data/noopt/geoms/mol2/6ld6el(240)6ff(220)4ff(260).out
 54 57 0 0 0
SMALL
GASTEIGER

@<TRIPOS>ATOM
      1 C          -4.5775   -2.0270    0.0001 C.ar    1  LIG1        0.2150
      2 C          -3.1706   -2.0270    0.0001 C.ar    1  LIG1        0.0012
      3 C          -2.5039   -0.8004    0.0001 C.ar    1  LIG1       -0.0372
      4 C          -3.2580    0.3743   -0.0001 C.ar    1  LIG1        0.0780
      5 C          -4.6612    0.2715   -0.0003 C.ar    1  LIG1        0.0949
      6 N          -5.3207   -0.9034   -0.0001 N.ar    1  LIG1       -0.2115
      7 H          -1.4054   -0.7607   -0.0009 H       1  LIG1        0.0633
      8 H          -2.5135   -3.1487    0.0004 H       1  LIG1        0.0671
      9 O          -5.2431   -3.1437    0.0002 O.3     1  LIG1       -0.4796
     10 C          -6.6454   -2.8635    0.0002 C.3     1  LIG1        0.0804
     11 H          -7.1928   -3.7829    0.0001 H       1  LIG1        0.0660
     12 H          -6.8964   -2.2991    0.8739 H       1  LIG1        0.0660
     13 H          -6.8963   -2.2990   -0.8734 H       1  LIG1        0.0660
     14 N          -2.1789    2.5700   -0.0005 N.1     1  LIG1       -0.1908
     15 C          -2.6846    1.5410   -0.0003 C.1     1  LIG1        0.1013
     16 C          -5.3165    2.2677    1.0505 C.ar    1  LIG1        0.1232
     17 C          -5.4065    1.3366   -0.0004 C.ar    1  LIG1        0.0390
     18 C          -6.3099    1.5848   -1.0354 C.ar    1  LIG1       -0.0059
     19 C          -7.0862    2.7440   -0.9863 C.ar    1  LIG1        0.1468
     20 C          -6.9244    3.6147    0.1069 C.ar    1  LIG1        0.1191
     21 N          -6.0576    3.3909    1.1139 N.ar    1  LIG1       -0.2339
     22 H          -6.4088    0.8797   -1.8729 H       1  LIG1        0.0662
     23 C          -4.4902    2.0806    2.0365 C.1     1  LIG1       -0.0491
     24 C          -3.7267    1.9077    2.9476 C.1     1  LIG1       -0.1124
     25 H          -3.0466    1.7537    3.7592 H       1  LIG1        0.1232
     26 O          -7.9418    3.0201   -1.9254 O.3     1  LIG1       -0.4929
     27 C          -7.8418    4.4043   -2.2702 C.3     1  LIG1        0.0789
     28 H          -8.5460    4.6312   -3.0431 H       1  LIG1        0.0660
     29 H          -8.0529    5.0027   -1.4085 H       1  LIG1        0.0660
     30 H          -6.8516    4.6150   -2.6167 H       1  LIG1        0.0660
     31 C          -7.1945    5.7601    1.0248 C.ar    1  LIG1        0.2226
     32 C          -7.6242    4.7065    0.1974 C.ar    1  LIG1        0.0688
     33 C          -8.8125    4.8631   -0.5185 C.ar    1  LIG1       -0.0036
     34 C          -9.5252    6.0559   -0.3851 C.ar    1  LIG1        0.1437
     35 C          -9.0141    7.0518    0.4674 C.ar    1  LIG1        0.1197
     36 N          -7.8695    6.9175    1.1653 N.ar    1  LIG1       -0.2087
     37 H          -9.1804    4.0612   -1.1742 H       1  LIG1        0.0663
     38 O          -6.0947    5.6615    1.7110 O.3     1  LIG1       -0.4919
     39 H          -5.7428    6.5385    1.8801 H       1  LIG1        0.2937
     40 O         -10.6370    6.2503   -1.0302 O.3     1  LIG1       -0.5046
     41 H         -11.0669    5.4068   -1.1892 H       1  LIG1        0.2922
     42 C         -10.2361    8.8131   -0.4858 C.ar    1  LIG1        0.1264
     43 C         -10.9027   10.0336   -0.2635 C.ar    1  LIG1       -0.0161
     44 C          -9.6415    8.1794    0.6245 C.ar    1  LIG1        0.0489
     45 C         -10.9758   10.5996    1.0073 C.ar    1  LIG1       -0.0167
     46 H         -11.3683   10.5394   -1.1064 H       1  LIG1        0.0655
     47 C          -9.7142    8.7441    1.8933 C.ar    1  LIG1       -0.0074
     48 C         -10.3813    9.9570    2.0939 C.ar    1  LIG1        0.1177
     49 H          -9.2475    8.2361    2.7335 H       1  LIG1        0.0662
     50 H         -11.5994   11.7277    1.1765 H       1  LIG1        0.0655
     51 O         -10.2016    8.3345   -1.6940 O.3     1  LIG1       -0.5061
     52 H          -9.2905    8.2815   -1.9918 H       1  LIG1        0.2922
     53 O         -10.4458   10.4802    3.2823 O.3     1  LIG1       -0.5067
     54 H         -11.3599   10.4983    3.5752 H       1  LIG1        0.2921
@<TRIPOS>BOND
     1    28    27    1
     2    30    27    1
     3    27    26    1
     4    27    29    1
     5    52    51    1
     6    26    19    1
     7    22    18    1
     8    51    42    1
     9    41    40    1
    10    37    33    1
    11    46    43    1
    12    18    19   ar
    13    18    17   ar
    14    40    34    1
    15    19    20   ar
    16    13    10    1
    17    33    34   ar
    18    33    32   ar
    19    42    43   ar
    20    42    44   ar
    21    34    35   ar
    22    43    45   ar
    23     7     3    1
    24    14    15    3
    25    17     5    1
    26    17    16   ar
    27    15     4    1
    28     5     6   ar
    29     5     4   ar
    30     6     1   ar
    31     4     3   ar
    32    11    10    1
    33     1     2   ar
    34     1     9    1
    35     2     3   ar
    36     2     8    1
    37    10     9    1
    38    10    12    1
    39    20    32    1
    40    20    21   ar
    41    32    31   ar
    42    35    44    1
    43    35    36   ar
    44    44    47   ar
    45    45    50    1
    46    45    48   ar
    47    31    36   ar
    48    31    38    1
    49    16    21   ar
    50    16    23    1
    51    38    39    1
    52    47    48   ar
    53    47    49    1
    54    23    24    3
    55    48    53    1
    56    24    25    1
    57    53    54    1
