@<TRIPOS>MOLECULE
mol_data/noopt/geoms/mol2/6ld6ld.out
 30 31 0 0 0
SMALL
GASTEIGER

@<TRIPOS>ATOM
      1 C          -4.5775   -2.0270    0.0001 C.ar    1  LIG1        0.2150
      2 C          -3.1706   -2.0270    0.0001 C.ar    1  LIG1        0.0012
      3 C          -2.5039   -0.8004    0.0001 C.ar    1  LIG1       -0.0372
      4 C          -3.2580    0.3743   -0.0001 C.ar    1  LIG1        0.0781
      5 C          -4.6612    0.2715   -0.0003 C.ar    1  LIG1        0.0972
      6 N          -5.3207   -0.9034   -0.0001 N.ar    1  LIG1       -0.2114
      7 H          -1.4054   -0.7607   -0.0009 H       1  LIG1        0.0633
      8 H          -2.5135   -3.1487    0.0004 H       1  LIG1        0.0671
      9 O          -5.2431   -3.1437    0.0002 O.3     1  LIG1       -0.4796
     10 C          -6.6454   -2.8635    0.0002 C.3     1  LIG1        0.0804
     11 H          -7.1928   -3.7829    0.0001 H       1  LIG1        0.0660
     12 H          -6.8964   -2.2991    0.8739 H       1  LIG1        0.0660
     13 H          -6.8963   -2.2990   -0.8734 H       1  LIG1        0.0660
     14 N          -2.1789    2.5700   -0.0005 N.1     1  LIG1       -0.1908
     15 C          -2.6846    1.5410   -0.0003 C.1     1  LIG1        0.1013
     16 C          -6.8088    1.2233   -0.0003 C.ar    1  LIG1        0.2240
     17 C          -5.4065    1.3366   -0.0004 C.ar    1  LIG1        0.0644
     18 C          -4.8408    2.6129   -0.0003 C.ar    1  LIG1       -0.0285
     19 C          -5.6871    3.7231   -0.0003 C.ar    1  LIG1        0.0707
     20 C          -7.0774    3.5076   -0.0004 C.ar    1  LIG1        0.0488
     21 N          -7.6401    2.2834   -0.0003 N.ar    1  LIG1       -0.2195
     22 H          -3.7491    2.7410   -0.0014 H       1  LIG1        0.0639
     23 H          -7.9061    4.5092   -0.0003 H       1  LIG1        0.0844
     24 O          -7.3823    0.0566   -0.0003 O.3     1  LIG1       -0.4792
     25 C          -8.8026    0.2229   -0.0004 C.3     1  LIG1        0.0804
     26 H          -9.2743   -0.7375   -0.0005 H       1  LIG1        0.0660
     27 H          -9.0983    0.7653    0.8734 H       1  LIG1        0.0660
     28 H          -9.0982    0.7655   -0.8739 H       1  LIG1        0.0660
     29 N          -4.7883    5.9986   -0.0004 N.1     1  LIG1       -0.1908
     30 C          -5.2095    4.9322   -0.0004 C.1     1  LIG1        0.1007
@<TRIPOS>BOND
     1    28    25    1
     2    13    10    1
     3    22    18    1
     4     7     3    1
     5    26    25    1
     6    14    15    3
     7    29    30    3
     8    17     5    1
     9    17    16   ar
    10    17    18   ar
    11    20    21   ar
    12    20    23    1
    13    20    19   ar
    14    30    19    1
    15    25    24    1
    16    25    27    1
    17     5     6   ar
    18     5     4   ar
    19    15     4    1
    20    16    24    1
    21    16    21   ar
    22    18    19   ar
    23     6     1   ar
    24     4     3   ar
    25    11    10    1
    26     1     2   ar
    27     1     9    1
    28     3     2   ar
    29     2     8    1
    30    10     9    1
    31    10    12    1
