@<TRIPOS>MOLECULE
mol_data/noopt/geoms/mol2/6le13ah(140)13ia(80)6ff(260).out
 49 52 0 0 0
SMALL
GASTEIGER

@<TRIPOS>ATOM
      1 C          -4.5775   -2.0270    0.0001 C.ar    1  LIG1        0.2151
      2 C          -3.1706   -2.0270    0.0001 C.ar    1  LIG1        0.0012
      3 C          -2.5039   -0.8004    0.0001 C.ar    1  LIG1       -0.0392
      4 C          -3.2580    0.3743   -0.0001 C.ar    1  LIG1        0.0523
      5 C          -4.6612    0.2715   -0.0003 C.ar    1  LIG1        0.1063
      6 N          -5.3207   -0.9034   -0.0001 N.ar    1  LIG1       -0.2102
      7 H          -1.4054   -0.7607   -0.0009 H       1  LIG1        0.0632
      8 H          -2.5135   -3.1487    0.0004 H       1  LIG1        0.0671
      9 O          -5.2431   -3.1437    0.0002 O.3     1  LIG1       -0.4796
     10 C          -6.6454   -2.8635    0.0002 C.3     1  LIG1        0.0804
     11 H          -7.1928   -3.7829    0.0001 H       1  LIG1        0.0660
     12 H          -6.8964   -2.2991    0.8739 H       1  LIG1        0.0660
     13 H          -6.8963   -2.2990   -0.8734 H       1  LIG1        0.0660
     14 C          -2.6846    1.5410   -0.0003 C.1     1  LIG1       -0.0675
     15 C          -2.1548    2.6190   -0.0005 C.1     1  LIG1       -0.1138
     16 H          -1.6828    3.5793   -0.0006 H       1  LIG1        0.1232
     17 C          -5.4065    1.3366   -0.0004 C.ar    1  LIG1        0.0685
     18 C          -6.5828    1.5900    0.6321 C.ar    1  LIG1       -0.0135
     19 C          -6.9749    2.9236    0.2879 C.ar    1  LIG1        0.0523
     20 C          -6.0200    3.4272   -0.5383 C.ar    1  LIG1        0.0845
     21 N          -5.0582    2.4587   -0.7179 N.ar    1  LIG1       -0.3503
     22 H          -4.2415    2.5547   -1.2763 H       1  LIG1        0.1660
     23 H          -7.2305    0.7695    1.4050 H       1  LIG1        0.0658
     24 N          -8.0453    3.5422    0.6898 N.pl3   1  LIG1       -0.3563
     25 H          -8.0374    4.4807    0.3445 H       1  LIG1        0.1424
     26 H          -8.8545    3.0668    0.3445 H       1  LIG1        0.1424
     27 C          -5.9287    4.5903   -1.1118 C.ar    1  LIG1        0.0681
     28 C          -5.6370    5.8108   -0.5892 C.ar    1  LIG1       -0.0231
     29 C          -5.6701    6.7556   -1.6648 C.ar    1  LIG1       -0.0327
     30 C          -5.9789    6.0706   -2.7977 C.ar    1  LIG1        0.0524
     31 N          -6.1385    4.7446   -2.4636 N.ar    1  LIG1       -0.3526
     32 H          -6.3681    4.0145   -3.0978 H       1  LIG1        0.1660
     33 C          -5.3778    6.0692    0.6585 C.3     1  LIG1       -0.0376
     34 H          -6.2662    6.4171    1.1428 H       1  LIG1        0.0278
     35 H          -4.6211    6.8235    0.7168 H       1  LIG1        0.0278
     36 H          -5.0327    5.1796    1.1427 H       1  LIG1        0.0278
     37 H          -5.4464    8.0332   -1.5780 H       1  LIG1        0.0642
     38 C          -6.3756    7.8439   -4.2864 C.ar    1  LIG1        0.2219
     39 C          -6.1240    6.4853   -4.0212 C.ar    1  LIG1        0.0631
     40 C          -6.0347    5.6013   -5.0980 C.ar    1  LIG1       -0.0045
     41 C          -6.1983    6.0994   -6.3917 C.ar    1  LIG1        0.1357
     42 C          -6.4469    7.4745   -6.5554 C.ar    1  LIG1        0.0728
     43 N          -6.5360    8.3415   -5.5279 N.ar    1  LIG1       -0.2172
     44 H          -5.8402    4.5326   -4.9298 H       1  LIG1        0.0663
     45 H          -6.6062    7.9856   -7.7400 H       1  LIG1        0.0868
     46 O          -6.4673    8.7054   -3.3171 O.3     1  LIG1       -0.4919
     47 H          -7.3898    8.8219   -3.0782 H       1  LIG1        0.2937
     48 O          -6.1244    5.3171   -7.4274 O.3     1  LIG1       -0.5052
     49 H          -5.2052    5.2094   -7.6826 H       1  LIG1        0.2922
@<TRIPOS>BOND
     1    45    42    1
     2    49    48    1
     3    48    41    1
     4    42    41   ar
     5    42    43   ar
     6    41    40   ar
     7    43    38   ar
     8    40    44    1
     9    40    39   ar
    10    38    39   ar
    11    38    46    1
    12    39    30    1
    13    46    47    1
    14    32    31    1
    15    30    31   ar
    16    30    29   ar
    17    31    27   ar
    18    29    37    1
    19    29    28   ar
    20    22    21    1
    21    27    28   ar
    22    27    20    1
    23    13    10    1
    24    21    20   ar
    25    21    17   ar
    26    28    33    1
    27    20    19   ar
    28     7     3    1
    29    16    15    1
    30    15    14    3
    31    17     5    1
    32    17    18   ar
    33    14     4    1
    34     5     6   ar
    35     5     4   ar
    36     6     1   ar
    37     4     3   ar
    38    11    10    1
    39     1     2   ar
    40     1     9    1
    41     3     2   ar
    42     2     8    1
    43    10     9    1
    44    10    12    1
    45    19    18   ar
    46    19    24    1
    47    26    24    1
    48    25    24    1
    49    18    23    1
    50    33    35    1
    51    33    36    1
    52    33    34    1
