@<TRIPOS>MOLECULE
mol_data/noopt/geoms/mol2/6le12di(230)4ed(70)12ah(180).out
 50 53 0 0 0
SMALL
GASTEIGER

@<TRIPOS>ATOM
      1 C          -4.5775   -2.0270    0.0001 C.ar    1  LIG1        0.2151
      2 C          -3.1706   -2.0270    0.0001 C.ar    1  LIG1        0.0012
      3 C          -2.5039   -0.8004    0.0001 C.ar    1  LIG1       -0.0391
      4 C          -3.2580    0.3743   -0.0001 C.ar    1  LIG1        0.0539
      5 C          -4.6612    0.2715   -0.0003 C.ar    1  LIG1        0.1264
      6 N          -5.3207   -0.9034   -0.0001 N.ar    1  LIG1       -0.2085
      7 H          -1.4054   -0.7607   -0.0009 H       1  LIG1        0.0632
      8 H          -2.5135   -3.1487    0.0004 H       1  LIG1        0.0671
      9 O          -5.2431   -3.1437    0.0002 O.3     1  LIG1       -0.4796
     10 C          -6.6454   -2.8635    0.0002 C.3     1  LIG1        0.0804
     11 H          -7.1928   -3.7829    0.0001 H       1  LIG1        0.0660
     12 H          -6.8964   -2.2991    0.8739 H       1  LIG1        0.0660
     13 H          -6.8963   -2.2990   -0.8734 H       1  LIG1        0.0660
     14 C          -2.6846    1.5410   -0.0003 C.1     1  LIG1       -0.0674
     15 C          -2.1548    2.6190   -0.0005 C.1     1  LIG1       -0.1138
     16 H          -1.6828    3.5793   -0.0006 H       1  LIG1        0.1232
     17 C          -5.4065    1.3366   -0.0004 C.ar    1  LIG1        0.1727
     18 C          -6.5186    1.7586   -0.6991 C.ar    1  LIG1        0.1025
     19 C          -6.8503    3.0750   -0.1951 C.ar    1  LIG1        0.0134
     20 C          -5.9186    3.3701    0.7787 C.ar    1  LIG1        0.1411
     21 O          -5.0177    2.3137    0.9172 O.2     1  LIG1       -0.4516
     22 N          -7.7294    0.5579   -2.4536 N.1     1  LIG1       -0.1907
     23 C          -7.1620    1.1206   -1.6314 C.1     1  LIG1        0.1033
     24 C          -7.8407    3.8140   -0.5999 C.3     1  LIG1       -0.0349
     25 H          -8.7607    3.4105   -0.2316 H       1  LIG1        0.0279
     26 H          -7.8607    3.8289   -1.6696 H       1  LIG1        0.0279
     27 H          -7.7155    4.8108   -0.2316 H       1  LIG1        0.0279
     28 C          -5.3185    4.1435    2.9108 C.ar    1  LIG1        0.0361
     29 C          -5.0887    5.2657    3.7300 C.ar    1  LIG1       -0.0337
     30 C          -5.6945    4.3754    1.5719 C.ar    1  LIG1        0.0342
     31 C          -5.2259    6.5624    3.2398 C.ar    1  LIG1        0.0358
     32 H          -4.7978    5.1094    4.7664 H       1  LIG1        0.0637
     33 C          -5.8316    5.6697    1.0820 C.ar    1  LIG1       -0.0318
     34 C          -5.5985    6.7716    1.9114 C.ar    1  LIG1        0.0631
     35 H          -6.1227    5.8224    0.0458 H       1  LIG1        0.0638
     36 C          -5.1743    2.9583    3.4251 C.1     1  LIG1       -0.0689
     37 C          -5.0410    1.8631    3.9003 C.1     1  LIG1       -0.1139
     38 H          -4.9223    0.8876    4.3236 H       1  LIG1        0.1232
     39 N          -5.8429    9.0443    1.0391 N.1     1  LIG1       -0.1908
     40 C          -5.7284    7.9792    1.4479 C.1     1  LIG1        0.0999
     41 C          -5.0057    7.5756    4.0239 C.ar    1  LIG1        0.1379
     42 C          -5.7846    8.5474    4.6171 C.ar    1  LIG1        0.0049
     43 C          -4.8876    9.3880    5.3824 C.ar    1  LIG1        0.0634
     44 C          -3.6195    8.8738    5.2061 C.ar    1  LIG1        0.1131
     45 O          -3.6664    7.7559    4.3724 O.2     1  LIG1       -0.4610
     46 H          -2.4282    9.1823    5.6253 H       1  LIG1        0.1049
     47 H          -7.0721    8.7017    4.5243 H       1  LIG1        0.0674
     48 N          -5.2364   10.4213    6.0900 N.pl3   1  LIG1       -0.3555
     49 H          -4.6343   11.1905    5.8760 H       1  LIG1        0.1424
     50 H          -6.1815   10.6682    5.8760 H       1  LIG1        0.1424
@<TRIPOS>BOND
     1    22    23    3
     2    26    24    1
     3    23    18    1
     4    13    10    1
     5    18    19   ar
     6    18    17   ar
     7    24    27    1
     8    24    25    1
     9    24    19    1
    10    19    20   ar
    11     7     3    1
    12    16    15    1
    13    15    14    3
    14    17     5    1
    15    17    21   ar
    16     5     6   ar
    17     5     4   ar
    18    14     4    1
    19     6     1   ar
    20     4     3   ar
    21    11    10    1
    22     1     2   ar
    23     1     9    1
    24     2     3   ar
    25     2     8    1
    26    10     9    1
    27    10    12    1
    28    35    33    1
    29    20    21   ar
    30    20    30    1
    31    39    40    3
    32    33    30   ar
    33    33    34   ar
    34    40    34    1
    35    30    28   ar
    36    34    31   ar
    37    28    36    1
    38    28    29   ar
    39    31    29   ar
    40    31    41    1
    41    36    37    3
    42    29    32    1
    43    37    38    1
    44    41    45   ar
    45    41    42   ar
    46    45    44   ar
    47    47    42    1
    48    42    43   ar
    49    44    43   ar
    50    44    46    1
    51    43    48    1
    52    50    48    1
    53    49    48    1
