@<TRIPOS>MOLECULE
mol_data/noopt/geoms/mol2/6le4li(230)6al(110)13ii(140).out
 61 63 0 0 0
SMALL
GASTEIGER

@<TRIPOS>ATOM
      1 C          -4.5775   -2.0270    0.0001 C.ar    1  LIG1        0.2150
      2 C          -3.1706   -2.0270    0.0001 C.ar    1  LIG1        0.0012
      3 C          -2.5039   -0.8004    0.0001 C.ar    1  LIG1       -0.0392
      4 C          -3.2580    0.3743   -0.0001 C.ar    1  LIG1        0.0510
      5 C          -4.6612    0.2715   -0.0003 C.ar    1  LIG1        0.0936
      6 N          -5.3207   -0.9034   -0.0001 N.ar    1  LIG1       -0.2116
      7 H          -1.4054   -0.7607   -0.0009 H       1  LIG1        0.0632
      8 H          -2.5135   -3.1487    0.0004 H       1  LIG1        0.0671
      9 O          -5.2431   -3.1437    0.0002 O.3     1  LIG1       -0.4796
     10 C          -6.6454   -2.8635    0.0002 C.3     1  LIG1        0.0804
     11 H          -7.1928   -3.7829    0.0001 H       1  LIG1        0.0660
     12 H          -6.8964   -2.2991    0.8739 H       1  LIG1        0.0660
     13 H          -6.8963   -2.2990   -0.8734 H       1  LIG1        0.0660
     14 C          -2.6846    1.5410   -0.0003 C.1     1  LIG1       -0.0675
     15 C          -2.1548    2.6190   -0.0005 C.1     1  LIG1       -0.1138
     16 H          -1.6828    3.5793   -0.0006 H       1  LIG1        0.1232
     17 C          -6.4525    1.4619   -0.9373 C.ar    1  LIG1        0.1299
     18 C          -7.2302    2.6353   -0.8974 C.ar    1  LIG1       -0.0113
     19 C          -5.4065    1.3366   -0.0004 C.ar    1  LIG1        0.0436
     20 C          -6.9796    3.6406    0.0339 C.ar    1  LIG1       -0.0099
     21 H          -8.0423    2.7525   -1.6115 H       1  LIG1        0.0660
     22 C          -5.1559    2.3399    0.9295 C.ar    1  LIG1       -0.0455
     23 C          -5.9398    3.4981    0.9535 C.ar    1  LIG1       -0.0418
     24 H          -4.3434    2.2198    1.6416 H       1  LIG1        0.0628
     25 O          -6.7348    0.5590   -1.8292 O.3     1  LIG1       -0.4944
     26 C          -8.1250    0.6298   -2.1566 C.3     1  LIG1        0.0788
     27 H          -8.3568   -0.1133   -2.8908 H       1  LIG1        0.0660
     28 H          -8.7081    0.4557   -1.2765 H       1  LIG1        0.0660
     29 H          -8.3504    1.6000   -2.5476 H       1  LIG1        0.0660
     30 C          -5.7007    4.4329    1.8252 C.3     1  LIG1       -0.0391
     31 H          -6.5653    4.5782    2.4386 H       1  LIG1        0.0278
     32 H          -5.4675    5.3445    1.3157 H       1  LIG1        0.0278
     33 H          -4.8724    4.1452    2.4385 H       1  LIG1        0.0278
     34 C          -7.7834    5.5384   -1.0933 C.ar    1  LIG1        0.0363
     35 C          -7.7174    4.7109    0.0426 C.ar    1  LIG1        0.0043
     36 C          -8.4595    5.0663    1.1704 C.ar    1  LIG1       -0.0036
     37 C          -9.2354    6.2259    1.1263 C.ar    1  LIG1        0.2068
     38 C          -9.2362    6.9887   -0.0559 C.ar    1  LIG1        0.1338
     39 N          -8.5265    6.6605   -1.1532 N.ar    1  LIG1       -0.2490
     40 H          -8.4322    4.4449    2.0767 H       1  LIG1        0.0663
     41 H          -7.1106    5.2493   -2.1674 H       1  LIG1        0.0836
     42 O          -9.9440    6.5998    2.1501 O.3     1  LIG1       -0.2856
     43 C          -9.5751    7.9293    2.5259 C.3     2  LIG2       -0.0681
     44 H         -10.1586    8.2367    3.3685 H       1  LIG1        0.0227
     45 H          -8.5368    7.9520    2.7838 H       1  LIG1        0.0227
     46 H          -9.7537    8.5941    1.7068 H       1  LIG1        0.0227
     47 C          -9.9427    8.0763   -0.1457 C.ar    1  LIG1        0.0719
     48 C         -11.1321    8.4049    0.4244 C.ar    1  LIG1       -0.0207
     49 C         -11.4633    9.7287   -0.0097 C.ar    1  LIG1       -0.0296
     50 C         -10.4608   10.1515   -0.8247 C.ar    1  LIG1        0.0054
     51 N          -9.5279    9.1428   -0.9111 N.ar    1  LIG1       -0.3589
     52 H          -8.6880    9.1790   -1.4414 H       1  LIG1        0.1654
     53 H         -10.3067   11.2758   -1.4590 H       1  LIG1        0.0810
     54 C         -11.8373    7.6524    1.2165 C.3     1  LIG1       -0.0374
     55 H         -11.1831    7.0728    1.8338 H       1  LIG1        0.0278
     56 H         -12.4509    6.9976    0.6336 H       1  LIG1        0.0278
     57 H         -12.4582    8.2676    1.8337 H       1  LIG1        0.0278
     58 C         -12.5257   10.4051    0.3140 C.3     1  LIG1       -0.0380
     59 H         -13.1803    9.7862    0.8913 H       1  LIG1        0.0278
     60 H         -13.0290   10.7254   -0.5743 H       1  LIG1        0.0278
     61 H         -12.2419   11.2601    0.8912 H       1  LIG1        0.0278
@<TRIPOS>BOND
     1    27    26    1
     2    29    26    1
     3    41    34    1
     4    26    25    1
     5    26    28    1
     6    25    17    1
     7    21    18    1
     8    53    50    1
     9    52    51    1
    10    39    34   ar
    11    39    38   ar
    12    34    35   ar
    13    17    18   ar
    14    17    19   ar
    15    51    50   ar
    16    51    47   ar
    17    18    20   ar
    18    13    10    1
    19    50    49   ar
    20    60    58    1
    21    47    38    1
    22    47    48   ar
    23    38    37   ar
    24    49    58    1
    25    49    48   ar
    26     7     3    1
    27    16    15    1
    28    15    14    3
    29    19     5    1
    30    19    22   ar
    31    14     4    1
    32     5     6   ar
    33     5     4   ar
    34     6     1   ar
    35     4     3   ar
    36    11    10    1
    37     1     2   ar
    38     1     9    1
    39     3     2   ar
    40     2     8    1
    41    10     9    1
    42    10    12    1
    43    20    35    1
    44    20    23   ar
    45    35    36   ar
    46    58    61    1
    47    58    59    1
    48    48    54    1
    49    56    54    1
    50    22    23   ar
    51    22    24    1
    52    23    30    1
    53    37    36   ar
    54    37    42    1
    55    36    40    1
    56    54    57    1
    57    54    55    1
    58    32    30    1
    59    46    43    1
    60    30    33    1
    61    30    31    1
    62    43    45    1
    63    43    44    1
