@<TRIPOS>MOLECULE
mol_data/noopt/geoms/mol2/6le6le6le.out
 47 49 0 0 0
SMALL
GASTEIGER

@<TRIPOS>ATOM
      1 C          -4.5775   -2.0270    0.0001 C.ar    1  LIG1        0.2150
      2 C          -3.1706   -2.0270    0.0001 C.ar    1  LIG1        0.0012
      3 C          -2.5039   -0.8004    0.0001 C.ar    1  LIG1       -0.0392
      4 C          -3.2580    0.3743   -0.0001 C.ar    1  LIG1        0.0510
      5 C          -4.6612    0.2715   -0.0003 C.ar    1  LIG1        0.0952
      6 N          -5.3207   -0.9034   -0.0001 N.ar    1  LIG1       -0.2115
      7 H          -1.4054   -0.7607   -0.0009 H       1  LIG1        0.0632
      8 H          -2.5135   -3.1487    0.0004 H       1  LIG1        0.0671
      9 O          -5.2431   -3.1437    0.0002 O.3     1  LIG1       -0.4796
     10 C          -6.6454   -2.8635    0.0002 C.3     1  LIG1        0.0804
     11 H          -7.1928   -3.7829    0.0001 H       1  LIG1        0.0660
     12 H          -6.8964   -2.2991    0.8739 H       1  LIG1        0.0660
     13 H          -6.8963   -2.2990   -0.8734 H       1  LIG1        0.0660
     14 C          -2.6846    1.5410   -0.0003 C.1     1  LIG1       -0.0675
     15 C          -2.1548    2.6190   -0.0005 C.1     1  LIG1       -0.1138
     16 H          -1.6828    3.5793   -0.0006 H       1  LIG1        0.1232
     17 C          -6.8088    1.2233   -0.0003 C.ar    1  LIG1        0.2245
     18 C          -5.4065    1.3366   -0.0004 C.ar    1  LIG1        0.0643
     19 C          -4.8408    2.6129   -0.0003 C.ar    1  LIG1       -0.0299
     20 C          -5.6871    3.7231   -0.0003 C.ar    1  LIG1        0.0516
     21 C          -7.0774    3.5076   -0.0004 C.ar    1  LIG1        0.0953
     22 N          -7.6401    2.2834   -0.0003 N.ar    1  LIG1       -0.2109
     23 H          -3.7491    2.7410   -0.0014 H       1  LIG1        0.0639
     24 O          -7.3823    0.0566   -0.0003 O.3     1  LIG1       -0.4792
     25 C          -8.8026    0.2229   -0.0004 C.3     1  LIG1        0.0804
     26 H          -9.2743   -0.7375   -0.0005 H       1  LIG1        0.0660
     27 H          -9.0983    0.7653    0.8734 H       1  LIG1        0.0660
     28 H          -9.0982    0.7655   -0.8739 H       1  LIG1        0.0660
     29 C          -5.2095    4.9322   -0.0004 C.1     1  LIG1       -0.0675
     30 C          -4.7682    6.0494   -0.0004 C.1     1  LIG1       -0.1138
     31 H          -4.3752    7.0446   -0.0005 H       1  LIG1        0.1232
     32 C          -9.2948    4.2833   -0.0001 C.ar    1  LIG1        0.2240
     33 C          -7.9061    4.5092   -0.0003 C.ar    1  LIG1        0.0643
     34 C          -7.4450    5.8270   -0.0001 C.ar    1  LIG1       -0.0305
     35 C          -8.3780    6.8653    0.0002 C.ar    1  LIG1        0.0436
     36 C          -9.7465    6.5385    0.0002 C.ar    1  LIG1        0.0468
     37 N         -10.2087    5.2730    0.0002 N.ar    1  LIG1       -0.2196
     38 H          -6.3672    6.0425   -0.0012 H       1  LIG1        0.0638
     39 H         -10.6531    7.4701    0.0005 H       1  LIG1        0.0843
     40 O          -9.7724    3.0742   -0.0002 O.3     1  LIG1       -0.4792
     41 C         -11.2015    3.1256   -0.0003 C.3     1  LIG1        0.0804
     42 H         -11.5942    2.1302   -0.0005 H       1  LIG1        0.0660
     43 H         -11.5399    3.6423    0.8735 H       1  LIG1        0.0660
     44 H         -11.5398    3.6426   -0.8738 H       1  LIG1        0.0660
     45 C          -7.9994    8.1090    0.0002 C.1     1  LIG1       -0.0681
     46 C          -7.6495    9.2581    0.0002 C.1     1  LIG1       -0.1139
     47 H          -7.3379   10.2817    0.0002 H       1  LIG1        0.1232
@<TRIPOS>BOND
     1    28    25    1
     2    44    41    1
     3    13    10    1
     4    23    19    1
     5    38    34    1
     6     7     3    1
     7    16    15    1
     8    26    25    1
     9    31    30    1
    10    42    41    1
    11    15    14    3
    12    30    29    3
    13    18     5    1
    14    18    17   ar
    15    18    19   ar
    16    21    22   ar
    17    21    33    1
    18    21    20   ar
    19    29    20    1
    20    25    24    1
    21    25    27    1
    22    14     4    1
    23     5     6   ar
    24     5     4   ar
    25    17    24    1
    26    17    22   ar
    27    19    20   ar
    28    33    32   ar
    29    33    34   ar
    30    41    40    1
    31    41    43    1
    32    40    32    1
    33     6     1   ar
    34     4     3   ar
    35    32    37   ar
    36    34    35   ar
    37    11    10    1
    38     1     2   ar
    39     1     9    1
    40     3     2   ar
    41     2     8    1
    42    37    36   ar
    43    36    35   ar
    44    36    39    1
    45    10     9    1
    46    10    12    1
    47    35    45    1
    48    45    46    3
    49    46    47    1
