@<TRIPOS>MOLECULE
mol_data/noopt/geoms/mol2/6le6le6le6le.out
 62 65 0 0 0
SMALL
GASTEIGER

@<TRIPOS>ATOM
      1 C          -4.5775   -2.0270    0.0001 C.ar    1  LIG1        0.2150
      2 C          -3.1706   -2.0270    0.0001 C.ar    1  LIG1        0.0012
      3 C          -2.5039   -0.8004    0.0001 C.ar    1  LIG1       -0.0392
      4 C          -3.2580    0.3743   -0.0001 C.ar    1  LIG1        0.0510
      5 C          -4.6612    0.2715   -0.0003 C.ar    1  LIG1        0.0952
      6 N          -5.3207   -0.9034   -0.0001 N.ar    1  LIG1       -0.2115
      7 H          -1.4054   -0.7607   -0.0009 H       1  LIG1        0.0632
      8 H          -2.5135   -3.1487    0.0004 H       1  LIG1        0.0671
      9 O          -5.2431   -3.1437    0.0002 O.3     1  LIG1       -0.4796
     10 C          -6.6454   -2.8635    0.0002 C.3     1  LIG1        0.0804
     11 H          -7.1928   -3.7829    0.0001 H       1  LIG1        0.0660
     12 H          -6.8964   -2.2991    0.8739 H       1  LIG1        0.0660
     13 H          -6.8963   -2.2990   -0.8734 H       1  LIG1        0.0660
     14 C          -2.6846    1.5410   -0.0003 C.1     1  LIG1       -0.0675
     15 C          -2.1548    2.6190   -0.0005 C.1     1  LIG1       -0.1138
     16 H          -1.6828    3.5793   -0.0006 H       1  LIG1        0.1232
     17 C          -6.8088    1.2233   -0.0003 C.ar    1  LIG1        0.2245
     18 C          -5.4065    1.3366   -0.0004 C.ar    1  LIG1        0.0643
     19 C          -4.8408    2.6129   -0.0003 C.ar    1  LIG1       -0.0299
     20 C          -5.6871    3.7231   -0.0003 C.ar    1  LIG1        0.0516
     21 C          -7.0774    3.5076   -0.0004 C.ar    1  LIG1        0.0953
     22 N          -7.6401    2.2834   -0.0003 N.ar    1  LIG1       -0.2109
     23 H          -3.7491    2.7410   -0.0014 H       1  LIG1        0.0639
     24 O          -7.3823    0.0566   -0.0003 O.3     1  LIG1       -0.4792
     25 C          -8.8026    0.2229   -0.0004 C.3     1  LIG1        0.0804
     26 H          -9.2743   -0.7375   -0.0005 H       1  LIG1        0.0660
     27 H          -9.0983    0.7653    0.8734 H       1  LIG1        0.0660
     28 H          -9.0982    0.7655   -0.8739 H       1  LIG1        0.0660
     29 C          -5.2095    4.9322   -0.0004 C.1     1  LIG1       -0.0675
     30 C          -4.7682    6.0494   -0.0004 C.1     1  LIG1       -0.1138
     31 H          -4.3752    7.0446   -0.0005 H       1  LIG1        0.1232
     32 C          -9.2948    4.2833   -0.0001 C.ar    1  LIG1        0.2245
     33 C          -7.9061    4.5092   -0.0003 C.ar    1  LIG1        0.0643
     34 C          -7.4450    5.8270   -0.0001 C.ar    1  LIG1       -0.0299
     35 C          -8.3780    6.8653    0.0002 C.ar    1  LIG1        0.0516
     36 C          -9.7465    6.5385    0.0002 C.ar    1  LIG1        0.0953
     37 N         -10.2087    5.2730    0.0002 N.ar    1  LIG1       -0.2109
     38 H          -6.3672    6.0425   -0.0012 H       1  LIG1        0.0639
     39 O          -9.7724    3.0742   -0.0002 O.3     1  LIG1       -0.4792
     40 C         -11.2015    3.1256   -0.0003 C.3     1  LIG1        0.0804
     41 H         -11.5942    2.1302   -0.0005 H       1  LIG1        0.0660
     42 H         -11.5399    3.6423    0.8735 H       1  LIG1        0.0660
     43 H         -11.5398    3.6426   -0.8738 H       1  LIG1        0.0660
     44 C          -7.9994    8.1090    0.0002 C.1     1  LIG1       -0.0675
     45 C          -7.6495    9.2581    0.0002 C.1     1  LIG1       -0.1138
     46 H          -7.3379   10.2817    0.0002 H       1  LIG1        0.1232
     47 C         -12.0191    7.1331    0.0008 C.ar    1  LIG1        0.2240
     48 C         -10.6531    7.4702    0.0005 C.ar    1  LIG1        0.0643
     49 C         -10.2997    8.8208    0.0008 C.ar    1  LIG1       -0.0305
     50 C         -11.3132    9.7806    0.0012 C.ar    1  LIG1        0.0436
     51 C         -12.6510    9.3446    0.0013 C.ar    1  LIG1        0.0468
     52 N         -13.0098    8.0460    0.0012 N.ar    1  LIG1       -0.2196
     53 H          -9.2427    9.1225   -0.0004 H       1  LIG1        0.0638
     54 H         -13.6297   10.2002    0.0018 H       1  LIG1        0.0843
     55 O         -12.3978    5.8895    0.0006 O.3     1  LIG1       -0.4792
     56 C         -13.8263    5.8256    0.0005 C.3     1  LIG1        0.0804
     57 H         -14.1376    4.8018    0.0001 H       1  LIG1        0.0660
     58 H         -14.2053    6.3133    0.8743 H       1  LIG1        0.0660
     59 H         -14.2052    6.3138   -0.8730 H       1  LIG1        0.0660
     60 C         -11.0360   11.0507    0.0014 C.1     1  LIG1       -0.0681
     61 C         -10.7799   12.2243    0.0015 C.1     1  LIG1       -0.1139
     62 H         -10.5517   13.2697    0.0016 H       1  LIG1        0.1232
@<TRIPOS>BOND
     1    28    25    1
     2    43    40    1
     3    13    10    1
     4    59    56    1
     5    23    19    1
     6    38    34    1
     7     7     3    1
     8    16    15    1
     9    31    30    1
    10    26    25    1
    11    41    40    1
    12    15    14    3
    13    53    49    1
    14    30    29    3
    15    18     5    1
    16    18    17   ar
    17    18    19   ar
    18    21    22   ar
    19    21    33    1
    20    21    20   ar
    21    29    20    1
    22    25    24    1
    23    25    27    1
    24    14     4    1
    25     5     6   ar
    26     5     4   ar
    27    17    24    1
    28    17    22   ar
    29    19    20   ar
    30    33    32   ar
    31    33    34   ar
    32    40    39    1
    33    40    42    1
    34    39    32    1
    35     6     1   ar
    36     4     3   ar
    37    32    37   ar
    38    34    35   ar
    39    11    10    1
    40     1     2   ar
    41     1     9    1
    42     2     3   ar
    43     2     8    1
    44    57    56    1
    45    37    36   ar
    46    36    35   ar
    47    36    48    1
    48    10     9    1
    49    10    12    1
    50    35    44    1
    51    44    45    3
    52    45    46    1
    53    56    55    1
    54    56    58    1
    55    48    47   ar
    56    48    49   ar
    57    55    47    1
    58    47    52   ar
    59    49    50   ar
    60    52    51   ar
    61    50    51   ar
    62    50    60    1
    63    51    54    1
    64    60    61    3
    65    61    62    1
