@<TRIPOS>MOLECULE
mol_data/noopt/geoms/mol2/6le6fd-12ha-6ff-.out
 48 50 0 0 0
SMALL
GASTEIGER

@<TRIPOS>ATOM
      1 C          -4.5775   -2.0270    0.0001 C.ar    1  LIG1        0.2150
      2 C          -3.1706   -2.0270    0.0001 C.ar    1  LIG1        0.0012
      3 C          -2.5039   -0.8004    0.0001 C.ar    1  LIG1       -0.0392
      4 C          -3.2580    0.3743   -0.0001 C.ar    1  LIG1        0.0510
      5 C          -4.6612    0.2715   -0.0003 C.ar    1  LIG1        0.0952
      6 N          -5.3207   -0.9034   -0.0001 N.ar    1  LIG1       -0.2115
      7 H          -1.4054   -0.7607   -0.0009 H       1  LIG1        0.0632
      8 H          -2.5135   -3.1487    0.0004 H       1  LIG1        0.0671
      9 O          -5.2431   -3.1437    0.0002 O.3     1  LIG1       -0.4796
     10 C          -6.6454   -2.8635    0.0002 C.3     1  LIG1        0.0804
     11 H          -7.1928   -3.7829    0.0001 H       1  LIG1        0.0660
     12 H          -6.8964   -2.2991    0.8739 H       1  LIG1        0.0660
     13 H          -6.8963   -2.2990   -0.8734 H       1  LIG1        0.0660
     14 C          -2.6846    1.5410   -0.0003 C.1     1  LIG1       -0.0675
     15 C          -2.1548    2.6190   -0.0005 C.1     1  LIG1       -0.1138
     16 H          -1.6828    3.5793   -0.0006 H       1  LIG1        0.1232
     17 C          -6.8087    1.2234   -0.0215 C.ar    1  LIG1        0.2224
     18 C          -5.4065    1.3366   -0.0004 C.ar    1  LIG1        0.0642
     19 C          -4.8409    2.6128    0.0206 C.ar    1  LIG1       -0.0279
     20 C          -5.6872    3.7230    0.0196 C.ar    1  LIG1        0.0786
     21 C          -7.0774    3.5076   -0.0025 C.ar    1  LIG1        0.0946
     22 N          -7.6400    2.2835   -0.0227 N.ar    1  LIG1       -0.2111
     23 H          -3.7493    2.7408    0.0363 H       1  LIG1        0.0639
     24 O          -7.3821    0.0568   -0.0413 O.3     1  LIG1       -0.4919
     25 H          -6.7112   -0.6299   -0.0462 H       1  LIG1        0.2937
     26 N          -4.7887    5.9983    0.0550 N.1     1  LIG1       -0.1908
     27 C          -5.2098    4.9320    0.0384 C.1     1  LIG1        0.1013
     28 C          -7.9061    4.5092   -0.0043 C.2     1  LIG1        0.0334
     29 C          -7.7876    5.8836    0.0092 C.2     1  LIG1        0.0382
     30 C          -9.1342    6.4161   -0.0031 C.2     1  LIG1        0.0071
     31 C          -9.9865    5.3314   -0.0235 C.2     1  LIG1        0.1930
     32 O          -9.2530    4.1444   -0.0247 O.2     1  LIG1       -0.2870
     33 N          -6.6951    6.5879    0.0293 N.pl3   1  LIG1       -0.3573
     34 H          -5.9665    6.0861   -0.4370 H       1  LIG1        0.1423
     35 H          -6.8512    7.4586   -0.4370 H       1  LIG1        0.1423
     36 H          -9.4503    7.6771    0.0039 H       1  LIG1        0.0675
     37 C         -11.8273    3.8727   -0.0719 C.ar    1  LIG1        0.2236
     38 C         -11.2759    5.1667   -0.0412 C.ar    1  LIG1        0.0864
     39 C         -12.1431    6.2608   -0.0300 C.ar    1  LIG1       -0.0027
     40 C         -13.5192    6.0278   -0.0499 C.ar    1  LIG1        0.1358
     41 C         -13.9746    4.6969   -0.0804 C.ar    1  LIG1        0.0728
     42 N         -13.1522    3.6297   -0.0914 N.ar    1  LIG1       -0.2172
     43 H         -11.7491    7.2867   -0.0072 H       1  LIG1        0.0663
     44 H         -15.2465    4.4289   -0.0997 H       1  LIG1        0.0868
     45 O         -11.0608    2.8227   -0.0832 O.3     1  LIG1       -0.4919
     46 H         -10.1410    3.0975   -0.0860 H       1  LIG1        0.2937
     47 O         -14.3679    7.0126   -0.0408 O.3     1  LIG1       -0.5052
     48 H         -15.2626    6.6646   -0.0386 H       1  LIG1        0.2922
@<TRIPOS>BOND
     1    13    10    1
     2    35    33    1
     3    34    33    1
     4    44    41    1
     5    42    41   ar
     6    42    37   ar
     7    46    45    1
     8    45    37    1
     9    41    40   ar
    10    37    38   ar
    11    40    47    1
    12    40    39   ar
    13    25    24    1
    14    24    17    1
    15    38    39   ar
    16    38    31    1
    17    47    48    1
    18    39    43    1
    19    32    31    1
    20    31    30    2
    21    22    17   ar
    22    22    21   ar
    23    17    18   ar
    24    28    21    1
    25    28    29    2
    26    30    36    1
    27    30    29    1
    28    21    20   ar
    29     7     3    1
    30    16    15    1
    31    15    14    3
    32    18     5    1
    33    18    19   ar
    34    14     4    1
    35     5     4   ar
    36     5     6   ar
    37     4     3   ar
    38     6     1   ar
    39    11    10    1
    40     1     2   ar
    41     1     9    1
    42     2     3   ar
    43     2     8    1
    44    10     9    1
    45    10    12    1
    46    29    33    1
    47    20    19   ar
    48    20    27    1
    49    19    23    1
    50    27    26    3
