@<TRIPOS>MOLECULE
mol_data/noopt/geoms/mol2/6le6le.out
 32 33 0 0 0
SMALL
GASTEIGER

@<TRIPOS>ATOM
      1 C          -4.5775   -2.0270    0.0001 C.ar    1  LIG1        0.2150
      2 C          -3.1706   -2.0270    0.0001 C.ar    1  LIG1        0.0012
      3 C          -2.5039   -0.8004    0.0001 C.ar    1  LIG1       -0.0392
      4 C          -3.2580    0.3743   -0.0001 C.ar    1  LIG1        0.0510
      5 C          -4.6612    0.2715   -0.0003 C.ar    1  LIG1        0.0952
      6 N          -5.3207   -0.9034   -0.0001 N.ar    1  LIG1       -0.2115
      7 H          -1.4054   -0.7607   -0.0009 H       1  LIG1        0.0632
      8 H          -2.5135   -3.1487    0.0004 H       1  LIG1        0.0671
      9 O          -5.2431   -3.1437    0.0002 O.3     1  LIG1       -0.4796
     10 C          -6.6454   -2.8635    0.0002 C.3     1  LIG1        0.0804
     11 H          -7.1928   -3.7829    0.0001 H       1  LIG1        0.0660
     12 H          -6.8964   -2.2991    0.8739 H       1  LIG1        0.0660
     13 H          -6.8963   -2.2990   -0.8734 H       1  LIG1        0.0660
     14 C          -2.6846    1.5410   -0.0003 C.1     1  LIG1       -0.0675
     15 C          -2.1548    2.6190   -0.0005 C.1     1  LIG1       -0.1138
     16 H          -1.6828    3.5793   -0.0006 H       1  LIG1        0.1232
     17 C          -6.8088    1.2233   -0.0003 C.ar    1  LIG1        0.2240
     18 C          -5.4065    1.3366   -0.0004 C.ar    1  LIG1        0.0643
     19 C          -4.8408    2.6129   -0.0003 C.ar    1  LIG1       -0.0305
     20 C          -5.6871    3.7231   -0.0003 C.ar    1  LIG1        0.0436
     21 C          -7.0774    3.5076   -0.0004 C.ar    1  LIG1        0.0468
     22 N          -7.6401    2.2834   -0.0003 N.ar    1  LIG1       -0.2196
     23 H          -3.7491    2.7410   -0.0014 H       1  LIG1        0.0638
     24 H          -7.9061    4.5092   -0.0003 H       1  LIG1        0.0843
     25 O          -7.3823    0.0566   -0.0003 O.3     1  LIG1       -0.4792
     26 C          -8.8026    0.2229   -0.0004 C.3     1  LIG1        0.0804
     27 H          -9.2743   -0.7375   -0.0005 H       1  LIG1        0.0660
     28 H          -9.0983    0.7653    0.8734 H       1  LIG1        0.0660
     29 H          -9.0982    0.7655   -0.8739 H       1  LIG1        0.0660
     30 C          -5.2095    4.9322   -0.0004 C.1     1  LIG1       -0.0681
     31 C          -4.7682    6.0494   -0.0004 C.1     1  LIG1       -0.1139
     32 H          -4.3752    7.0446   -0.0005 H       1  LIG1        0.1232
@<TRIPOS>BOND
     1    29    26    1
     2    13    10    1
     3    23    19    1
     4     7     3    1
     5    16    15    1
     6    32    31    1
     7    27    26    1
     8    15    14    3
     9    31    30    3
    10    18     5    1
    11    18    17   ar
    12    18    19   ar
    13    21    22   ar
    14    21    24    1
    15    21    20   ar
    16    30    20    1
    17    26    25    1
    18    26    28    1
    19     5     6   ar
    20     5     4   ar
    21    14     4    1
    22    17    25    1
    23    17    22   ar
    24    19    20   ar
    25     6     1   ar
    26     4     3   ar
    27    11    10    1
    28     1     2   ar
    29     1     9    1
    30     3     2   ar
    31     2     8    1
    32    10     9    1
    33    10    12    1
