@<TRIPOS>MOLECULE
mol_data/noopt/geoms/mol2/6lf13la(210)13ai(260)4eh(50).out
 53 56 0 0 0
SMALL
GASTEIGER

@<TRIPOS>ATOM
      1 C          -4.5775   -2.0270    0.0001 C.ar    1  LIG1        0.2152
      2 C          -3.1706   -2.0270    0.0001 C.ar    1  LIG1        0.0035
      3 C          -2.5039   -0.8004    0.0001 C.ar    1  LIG1       -0.0130
      4 C          -3.2580    0.3743   -0.0001 C.ar    1  LIG1        0.1445
      5 C          -4.6612    0.2715   -0.0003 C.ar    1  LIG1        0.1357
      6 N          -5.3207   -0.9034   -0.0001 N.ar    1  LIG1       -0.2076
      7 H          -1.4054   -0.7607   -0.0009 H       1  LIG1        0.0656
      8 H          -2.5135   -3.1487    0.0004 H       1  LIG1        0.0672
      9 O          -5.2431   -3.1437    0.0002 O.3     1  LIG1       -0.4796
     10 C          -6.6454   -2.8635    0.0002 C.3     1  LIG1        0.0804
     11 H          -7.1928   -3.7829    0.0001 H       1  LIG1        0.0660
     12 H          -6.8964   -2.2991    0.8739 H       1  LIG1        0.0660
     13 H          -6.8963   -2.2990   -0.8734 H       1  LIG1        0.0660
     14 O          -2.6846    1.5410   -0.0003 O.3     1  LIG1       -0.5046
     15 H          -3.3554    2.2278   -0.0003 H       1  LIG1        0.2922
     16 C          -5.4065    1.3366   -0.0004 C.ar    1  LIG1        0.1113
     17 C          -6.6609    1.5353   -0.4853 C.ar    1  LIG1        0.1475
     18 C          -7.0096    2.8993   -0.2233 C.ar    1  LIG1        0.0075
     19 C          -5.9537    3.4737    0.4116 C.ar    1  LIG1        0.0669
     20 N          -4.9699    2.5206    0.5497 N.ar    1  LIG1       -0.3488
     21 H          -4.0850    2.6644    0.9791 H       1  LIG1        0.1661
     22 O          -7.4035    0.6483   -1.0784 O.3     1  LIG1       -0.4929
     23 C          -8.7097    1.1879   -1.2963 C.3     1  LIG1        0.0789
     24 H          -9.3205    0.4576   -1.7846 H       1  LIG1        0.0660
     25 H          -9.1490    1.4493   -0.3562 H       1  LIG1        0.0660
     26 H          -8.6371    2.0607   -1.9109 H       1  LIG1        0.0660
     27 H          -8.1285    3.4839   -0.5335 H       1  LIG1        0.0676
     28 C          -5.7914    4.6865    0.8507 C.ar    1  LIG1        0.0637
     29 C          -5.8294    5.8752    0.1924 C.ar    1  LIG1       -0.0315
     30 C          -5.5836    6.9057    1.1560 C.ar    1  LIG1       -0.0245
     31 C          -5.4079    6.3014    2.3610 C.ar    1  LIG1        0.0511
     32 N          -5.5339    4.9427    2.1785 N.ar    1  LIG1       -0.3528
     33 H          -5.4525    4.2558    2.8924 H       1  LIG1        0.1660
     34 H          -6.0474    6.0418   -1.0783 H       1  LIG1        0.0642
     35 C          -5.5367    8.1844    0.9249 C.3     1  LIG1       -0.0377
     36 H          -6.3936    8.6568    1.3579 H       1  LIG1        0.0278
     37 H          -5.5305    8.3561   -0.1313 H       1  LIG1        0.0278
     38 H          -4.6475    8.5927    1.3578 H       1  LIG1        0.0278
     39 C          -4.6897    5.9829    4.5716 C.ar    1  LIG1        0.0339
     40 C          -4.4389    6.5814    5.8214 C.ar    1  LIG1       -0.0440
     41 C          -5.1612    6.8099    3.5316 C.ar    1  LIG1        0.0157
     42 C          -4.6470    7.9431    6.0287 C.ar    1  LIG1       -0.0399
     43 H          -4.0748    5.9615    6.6377 H       1  LIG1        0.0630
     44 C          -5.3691    8.1694    3.7380 C.ar    1  LIG1       -0.0308
     45 C          -5.1137    8.7455    4.9868 C.ar    1  LIG1        0.0252
     46 H          -5.7332    8.7861    2.9203 H       1  LIG1        0.0643
     47 H          -4.4049    8.4628    7.1955 H       1  LIG1        0.0636
     48 C          -4.4763    4.7074    4.4390 C.1     1  LIG1       -0.0690
     49 C          -4.2792    3.5288    4.3165 C.1     1  LIG1       -0.1139
     50 H          -4.1035    2.4790    4.2074 H       1  LIG1        0.1232
     51 N          -5.3100   10.0169    5.1740 N.pl3   1  LIG1       -0.3579
     52 H          -4.5638   10.5346    4.7554 H       1  LIG1        0.1423
     53 H          -6.1776   10.2854    4.7554 H       1  LIG1        0.1423
@<TRIPOS>BOND
     1    26    23    1
     2    24    23    1
     3    23    22    1
     4    23    25    1
     5    22    17    1
     6    34    29    1
     7    13    10    1
     8    27    18    1
     9    17    18   ar
    10    17    16   ar
    11    18    19   ar
    12    37    35    1
    13     7     3    1
    14    16     5    1
    15    16    20   ar
    16    15    14    1
    17     5     6   ar
    18     5     4   ar
    19    14     4    1
    20     6     1   ar
    21     4     3   ar
    22    11    10    1
    23     1     2   ar
    24     1     9    1
    25     2     3   ar
    26     2     8    1
    27    10     9    1
    28    10    12    1
    29    29    28   ar
    30    29    30   ar
    31    19    20   ar
    32    19    28    1
    33    20    21    1
    34    28    32   ar
    35    35    30    1
    36    35    38    1
    37    35    36    1
    38    30    31   ar
    39    32    31   ar
    40    32    33    1
    41    31    41    1
    42    46    44    1
    43    41    44   ar
    44    41    39   ar
    45    44    45   ar
    46    50    49    1
    47    49    48    3
    48    48    39    1
    49    39    40   ar
    50    53    51    1
    51    52    51    1
    52    45    51    1
    53    45    42   ar
    54    40    42   ar
    55    40    43    1
    56    42    47    1
