@<TRIPOS>MOLECULE
mol_data/noopt/geoms/mol2/6lf12ee-12hd-4ed.out
 50 54 0 0 0
SMALL
GASTEIGER

@<TRIPOS>ATOM
      1 C          -4.5775   -2.0270    0.0001 C.ar    1  LIG1        0.2153
      2 C          -3.1706   -2.0270    0.0001 C.ar    1  LIG1        0.0035
      3 C          -2.5039   -0.8004    0.0001 C.ar    1  LIG1       -0.0129
      4 C          -3.2580    0.3743   -0.0001 C.ar    1  LIG1        0.1460
      5 C          -4.6612    0.2715   -0.0003 C.ar    1  LIG1        0.1522
      6 N          -5.3207   -0.9034   -0.0001 N.ar    1  LIG1       -0.2060
      7 H          -1.4054   -0.7607   -0.0009 H       1  LIG1        0.0656
      8 H          -2.5135   -3.1487    0.0004 H       1  LIG1        0.0672
      9 O          -5.2431   -3.1437    0.0002 O.3     1  LIG1       -0.4796
     10 C          -6.6454   -2.8635    0.0002 C.3     1  LIG1        0.0804
     11 H          -7.1928   -3.7829    0.0001 H       1  LIG1        0.0660
     12 H          -6.8964   -2.2991    0.8739 H       1  LIG1        0.0660
     13 H          -6.8963   -2.2990   -0.8734 H       1  LIG1        0.0660
     14 O          -2.6846    1.5410   -0.0003 O.3     1  LIG1       -0.5045
     15 H          -3.3554    2.2278   -0.0003 H       1  LIG1        0.2922
     16 C          -5.4065    1.3366   -0.0004 C.ar    1  LIG1        0.1742
     17 C          -5.1777    2.6969    0.0143 C.ar    1  LIG1        0.0881
     18 C          -6.4770    3.3362    0.0035 C.ar    1  LIG1        0.0896
     19 C          -7.4140    2.3237   -0.0171 C.ar    1  LIG1        0.1890
     20 O          -6.7784    1.0815   -0.0201 O.2     1  LIG1       -0.4475
     21 C          -4.0320    3.3109    0.0342 C.1     1  LIG1       -0.0646
     22 C          -2.9734    3.8782    0.0525 C.1     1  LIG1       -0.1138
     23 H          -2.0304    4.3836    0.0688 H       1  LIG1        0.1232
     24 C          -6.6906    4.6185    0.0120 C.1     1  LIG1       -0.0645
     25 C          -6.8879    5.8034    0.0199 C.1     1  LIG1       -0.1138
     26 H          -7.0636    6.8588    0.0268 H       1  LIG1        0.1232
     27 C          -8.7125    2.2634   -0.0340 C.ar    1  LIG1        0.1927
     28 C          -9.7395    3.1843   -0.0467 C.ar    1  LIG1        0.0802
     29 C         -10.9744    2.4282   -0.0632 C.ar    1  LIG1        0.0499
     30 C         -10.6199    1.0948   -0.0595 C.ar    1  LIG1        0.1440
     31 O          -9.2305    0.9676   -0.0417 O.2     1  LIG1       -0.4494
     32 N          -9.6457    4.4810   -0.0446 N.pl3   1  LIG1       -0.3547
     33 H          -8.8072    4.7552   -0.5155 H       1  LIG1        0.1424
     34 H         -10.4359    4.8731   -0.5156 H       1  LIG1        0.1424
     35 N         -13.2284    3.3793   -0.0918 N.pl3   1  LIG1       -0.2334
     36 C         -12.1721    2.9336   -0.0784 C.3     1  LIG1        0.1428
     37 C         -12.6731   -0.0400   -0.0726 C.2     1  LIG1        0.0143
     38 C         -13.3231   -1.2893   -0.0809 C.3     1  LIG1        0.0225
     39 C         -11.2633   -0.0347   -0.0685 C.2     1  LIG1        0.0303
     40 C         -12.6031   -2.4819   -0.0854 C.2     1  LIG1       -0.0577
     41 H         -14.4105   -1.3163   -0.0839 H       1  LIG1        0.0407
     42 C         -10.5440   -1.2250   -0.0731 C.2     1  LIG1       -0.0331
     43 C         -11.2079   -2.4561   -0.0817 C.2     1  LIG1        0.0492
     44 H          -9.4574   -1.1945   -0.0697 H       1  LIG1        0.0638
     45 H         -13.2356   -3.6177   -0.0931 H       1  LIG1        0.0591
     46 C         -13.3990    1.0385   -0.0689 C.1     1  LIG1       -0.0983
     47 C         -14.0697    2.0350   -0.0655 C.2     1  LIG1        0.0548
     48 H         -14.6672    2.9226   -0.0625 H       1  LIG1        0.0888
     49 N          -9.9327   -4.5440   -0.0893 N.1     1  LIG1       -0.1909
     50 C         -10.5303   -3.5655   -0.0857 C.1     1  LIG1        0.0989
@<TRIPOS>BOND
     1    13    10    1
     2    34    32    1
     3    33    32    1
     4    45    40    1
     5    35    36    1
     6    35    47    1
     7    49    50    3
     8    50    43    1
     9    40    43    2
    10    40    38    1
    11    41    38    1
    12    43    42    1
    13    38    37    1
    14    36    29    1
    15    42    44    1
    16    42    39    2
    17    37    46    2
    18    37    39    1
    19    46    47    2
    20    39    30    1
    21    47    48    1
    22    29    30   ar
    23    29    28   ar
    24    30    31   ar
    25    28    32    1
    26    28    27   ar
    27    31    27   ar
    28    27    19    1
    29    20    19   ar
    30    20    16   ar
    31    19    18   ar
    32     7     3    1
    33    16     5    1
    34    16    17   ar
    35    15    14    1
    36    14     4    1
    37     5     6   ar
    38     5     4   ar
    39     6     1   ar
    40     4     3   ar
    41    11    10    1
    42     1     2   ar
    43     1     9    1
    44     3     2   ar
    45     2     8    1
    46    10     9    1
    47    10    12    1
    48    18    24    1
    49    18    17   ar
    50    24    25    3
    51    17    21    1
    52    25    26    1
    53    21    22    3
    54    22    23    1
