@<TRIPOS>MOLECULE
mol_data/noopt/geoms/mol2/6lf4ia12el4ii.out
 58 58 0 0 0
SMALL
GASTEIGER

@<TRIPOS>ATOM
      1 C          -4.5775   -2.0270    0.0001 C.ar    1  LIG1        0.2150
      2 C          -3.1706   -2.0270    0.0001 C.ar    1  LIG1        0.0006
      3 C          -2.5039   -0.8004    0.0001 C.ar    1  LIG1       -0.0469
      4 C          -3.2580    0.3743   -0.0001 C.ar    1  LIG1        0.0104
      5 C          -4.6612    0.2715   -0.0003 C.ar    1  LIG1        0.0828
      6 N          -5.3207   -0.9034   -0.0001 N.ar    1  LIG1       -0.2123
      7 H          -1.4054   -0.7607   -0.0009 H       1  LIG1        0.0626
      8 H          -2.5135   -3.1487    0.0004 H       1  LIG1        0.0671
      9 O          -5.2431   -3.1437    0.0002 O.3     1  LIG1       -0.4796
     10 C          -6.6454   -2.8635    0.0002 C.3     1  LIG1        0.0804
     11 H          -7.1928   -3.7829    0.0001 H       1  LIG1        0.0660
     12 H          -6.8964   -2.2991    0.8739 H       1  LIG1        0.0660
     13 H          -6.8963   -2.2990   -0.8734 H       1  LIG1        0.0660
     14 O          -2.6846    1.5410   -0.0003 O.3     2  HOH2       -0.2528
     15 H          -3.3554    2.2278   -0.0003 H       3  UNK3        0.0000
     16 C          -4.8076    2.6130    0.0003 C.ar    1  LIG1       -0.0372
     17 C          -5.6584    3.7353    0.0017 C.ar    1  LIG1       -0.0472
     18 C          -5.4065    1.3366   -0.0004 C.ar    1  LIG1        0.0043
     19 C          -7.0444    3.5952    0.0018 C.ar    1  LIG1        0.0189
     20 H          -5.2172    4.7295    0.0025 H       1  LIG1        0.0627
     21 C          -6.7901    1.1962   -0.0003 C.ar    1  LIG1       -0.0516
     22 C          -7.6184    2.3233    0.0007 C.ar    1  LIG1       -0.0504
     23 H          -7.2278    0.2012   -0.0008 H       1  LIG1        0.0624
     24 C          -3.5219    2.8073    0.0000 C.3     1  LIG1       -0.0230
     25 H          -3.2997    3.7244    0.5044 H       1  LIG1        0.0317
     26 H          -3.1695    2.8606   -1.0089 H       1  LIG1        0.0317
     27 H          -3.0387    1.9967    0.5043 H       0  HOH0        0.2528
     28 H          -8.9112    2.1860    0.0009 H       1  LIG1        0.0625
     29 C          -7.8000    4.6531    0.0030 C.ar    1  LIG1        0.1549
     30 C          -7.5843    6.0156    0.0039 C.ar    1  LIG1        0.1177
     31 C          -8.8898    6.6422    0.0051 C.ar    1  LIG1        0.2403
     32 C          -9.8171    5.6205    0.0047 C.ar    1  LIG1        0.1836
     33 O          -9.1695    4.3846    0.0033 O.2     1  LIG1       -0.4496
     34 C          -6.4445    6.6408    0.0039 C.1     1  LIG1       -0.0620
     35 C          -5.3913    7.2184    0.0038 C.1     1  LIG1       -0.1137
     36 H          -4.4532    7.7330    0.0038 H       1  LIG1        0.1232
     37 O          -9.1158    7.9225    0.0062 O.3     1  LIG1       -0.2825
     38 C          -7.8712    8.6267    0.0065 C.3     4  LIG4       -0.0681
     39 H          -8.0576    9.6804    0.0072 H       1  LIG1        0.0227
     40 H          -7.3122    8.3628    0.8799 H       1  LIG1        0.0227
     41 H          -7.3125    8.3640   -0.8674 H       1  LIG1        0.0227
     42 C         -11.8848    6.7288    0.0064 C.ar    1  LIG1       -0.0397
     43 C         -13.2869    6.5963    0.0087 C.ar    1  LIG1       -0.0579
     44 C         -11.1150    5.5476    0.0053 C.ar    1  LIG1        0.0243
     45 C         -13.8976    5.3443    0.0091 C.ar    1  LIG1       -0.0586
     46 H         -13.8999    7.4949    0.0097 H       1  LIG1        0.0620
     47 C         -11.7241    4.2974    0.0058 C.ar    1  LIG1       -0.0478
     48 C         -13.1185    4.1866    0.0076 C.ar    1  LIG1       -0.0498
     49 H         -11.1086    3.4014    0.0050 H       1  LIG1        0.0627
     50 H         -15.1948    5.2588    0.0111 H       1  LIG1        0.0620
     51 C         -11.3731    7.9241    0.0058 C.3     1  LIG1       -0.0390
     52 H         -12.0358    8.5961    0.5101 H       1  LIG1        0.0278
     53 H         -11.2330    8.2517   -1.0032 H       1  LIG1        0.0278
     54 H         -10.4295    7.9084    0.5100 H       1  LIG1        0.0278
     55 C         -13.6824    3.0150    0.0082 C.3     1  LIG1       -0.0397
     56 H         -13.0498    2.3149    0.5128 H       1  LIG1        0.0278
     57 H         -13.8373    2.6931   -1.0005 H       1  LIG1        0.0278
     58 H         -14.6242    3.0727    0.5127 H       1  LIG1        0.0278
@<TRIPOS>BOND
     1    26    24    1
     2    53    51    1
     3    57    55    1
     4    13    10    1
     5    41    38    1
     6     7     3    1
     7    23    21    1
     8    18    21   ar
     9    18     5    1
    10    18    16   ar
    11    21    22   ar
    12     5     6   ar
    13     5     4   ar
    14    14    27    1
    15     6     1   ar
    16     4     3   ar
    17    24    16    1
    18    24    25    1
    19    11    10    1
    20     1     2   ar
    21     1     9    1
    22     3     2   ar
    23     2     8    1
    24    10     9    1
    25    10    12    1
    26    16    17   ar
    27    22    28    1
    28    22    19   ar
    29    17    19   ar
    30    17    20    1
    31    19    29    1
    32    29    33   ar
    33    29    30   ar
    34    33    32   ar
    35    36    35    1
    36    35    34    3
    37    34    30    1
    38    30    31   ar
    39    32    31   ar
    40    32    44    1
    41    49    47    1
    42    31    37    1
    43    44    47   ar
    44    44    42   ar
    45    47    48   ar
    46    51    42    1
    47    51    54    1
    48    51    52    1
    49    42    43   ar
    50    38    39    1
    51    38    40    1
    52    48    55    1
    53    48    45   ar
    54    55    58    1
    55    55    56    1
    56    43    45   ar
    57    43    46    1
    58    45    50    1
