@<TRIPOS>MOLECULE
mol_data/noopt/geoms/mol2/6lf4ae-13aa4fi.out
 50 53 0 0 0
SMALL
GASTEIGER

@<TRIPOS>ATOM
      1 C          -4.5775   -2.0270    0.0001 C.ar    1  LIG1        0.2152
      2 C          -3.1706   -2.0270    0.0001 C.ar    1  LIG1        0.0035
      3 C          -2.5039   -0.8004    0.0001 C.ar    1  LIG1       -0.0130
      4 C          -3.2580    0.3743   -0.0001 C.ar    1  LIG1        0.1429
      5 C          -4.6612    0.2715   -0.0003 C.ar    1  LIG1        0.1161
      6 N          -5.3207   -0.9034   -0.0001 N.ar    1  LIG1       -0.2092
      7 H          -1.4054   -0.7607   -0.0009 H       1  LIG1        0.0656
      8 H          -2.5135   -3.1487    0.0004 H       1  LIG1        0.0672
      9 O          -5.2431   -3.1437    0.0002 O.3     1  LIG1       -0.4796
     10 C          -6.6454   -2.8635    0.0002 C.3     1  LIG1        0.0804
     11 H          -7.1928   -3.7829    0.0001 H       1  LIG1        0.0660
     12 H          -6.8964   -2.2991    0.8739 H       1  LIG1        0.0660
     13 H          -6.8963   -2.2990   -0.8734 H       1  LIG1        0.0660
     14 O          -2.6846    1.5410   -0.0003 O.3     1  LIG1       -0.5046
     15 H          -3.3554    2.2278   -0.0003 H       1  LIG1        0.2922
     16 C          -4.8078    2.6129    0.0216 C.ar    1  LIG1       -0.0518
     17 C          -5.6586    3.7351    0.0221 C.ar    1  LIG1       -0.0508
     18 C          -5.4065    1.3366   -0.0004 C.ar    1  LIG1        0.0052
     19 C          -7.0444    3.5952    0.0010 C.ar    1  LIG1        0.0137
     20 H          -5.2175    4.7293    0.0391 H       1  LIG1        0.0625
     21 C          -6.7900    1.1963   -0.0215 C.ar    1  LIG1       -0.0364
     22 C          -7.6183    2.3234   -0.0211 C.ar    1  LIG1        0.0344
     23 H          -7.2275    0.2014   -0.0382 H       1  LIG1        0.0636
     24 H          -3.5225    2.8070    0.0417 H       1  LIG1        0.0624
     25 C          -8.9109    2.1862   -0.0407 C.1     1  LIG1       -0.0690
     26 C         -10.1052    2.0593   -0.0588 C.1     1  LIG1       -0.1139
     27 H         -11.1691    1.9463   -0.0750 H       1  LIG1        0.1232
     28 C          -7.8001    4.6531    0.0019 C.ar    1  LIG1        0.0481
     29 C          -7.4709    5.9720    0.0023 C.ar    1  LIG1       -0.0358
     30 C          -8.6934    6.7178    0.0046 C.ar    1  LIG1       -0.0357
     31 C          -9.7158    5.8219    0.0038 C.ar    1  LIG1        0.0504
     32 N          -9.1733    4.5566    0.0027 N.ar    1  LIG1       -0.3540
     33 H          -9.6910    3.7080    0.0018 H       1  LIG1        0.1659
     34 H          -6.2669    6.4622    0.0021 H       1  LIG1        0.0639
     35 H          -8.8083    8.0127    0.0065 H       1  LIG1        0.0639
     36 C         -11.5204    7.3209    0.0064 C.ar    1  LIG1        0.1259
     37 C         -12.9206    7.4713    0.0093 C.ar    1  LIG1       -0.0193
     38 C         -11.0021    6.0098    0.0050 C.ar    1  LIG1        0.0399
     39 C         -13.7692    6.3665    0.0101 C.ar    1  LIG1       -0.0554
     40 H         -13.3417    8.4742    0.0106 H       1  LIG1        0.0654
     41 C         -11.8487    4.9065    0.0058 C.ar    1  LIG1       -0.0462
     42 C         -13.2371    5.0765    0.0082 C.ar    1  LIG1       -0.0496
     43 H         -11.4247    3.9056    0.0048 H       1  LIG1        0.0628
     44 H         -15.0573    6.5420    0.0126 H       1  LIG1        0.0621
     45 O         -10.7803    8.3897    0.0056 O.3     1  LIG1       -0.5061
     46 H         -11.3418    9.1684    0.0054 H       1  LIG1        0.2922
     47 C         -14.0238    4.0412    0.0091 C.3     1  LIG1       -0.0397
     48 H         -13.5438    3.2289    0.5138 H       1  LIG1        0.0278
     49 H         -14.2400    3.7566   -0.9995 H       1  LIG1        0.0278
     50 H         -14.9350    4.2861    0.5137 H       1  LIG1        0.0278
@<TRIPOS>BOND
     1    49    47    1
     2    13    10    1
     3    27    26    1
     4    26    25    3
     5    25    22    1
     6    23    21    1
     7    21    22   ar
     8    21    18   ar
     9    22    19   ar
    10     7     3    1
    11    18     5    1
    12    18    16   ar
    13    15    14    1
    14     5     6   ar
    15     5     4   ar
    16    14     4    1
    17     6     1   ar
    18     4     3   ar
    19    11    10    1
    20     1     2   ar
    21     1     9    1
    22     2     3   ar
    23     2     8    1
    24    10     9    1
    25    10    12    1
    26    19    28    1
    27    19    17   ar
    28    33    32    1
    29    28    29   ar
    30    28    32   ar
    31    34    29    1
    32    29    30   ar
    33    32    31   ar
    34    31    30   ar
    35    31    38    1
    36    30    35    1
    37    43    41    1
    38    38    41   ar
    39    38    36   ar
    40    46    45    1
    41    45    36    1
    42    41    42   ar
    43    36    37   ar
    44    42    47    1
    45    42    39   ar
    46    47    50    1
    47    47    48    1
    48    37    39   ar
    49    37    40    1
    50    39    44    1
    51    16    17   ar
    52    16    24    1
    53    17    20    1
