@<TRIPOS>MOLECULE
mol_data/noopt/geoms/mol2/6lf6aa(300)13fe(240)12al(60).out
 47 50 0 0 0
SMALL
GASTEIGER

@<TRIPOS>ATOM
      1 C          -4.5775   -2.0270    0.0001 C.ar    1  LIG1        0.2152
      2 C          -3.1706   -2.0270    0.0001 C.ar    1  LIG1        0.0035
      3 C          -2.5039   -0.8004    0.0001 C.ar    1  LIG1       -0.0130
      4 C          -3.2580    0.3743   -0.0001 C.ar    1  LIG1        0.1430
      5 C          -4.6612    0.2715   -0.0003 C.ar    1  LIG1        0.1175
      6 N          -5.3207   -0.9034   -0.0001 N.ar    1  LIG1       -0.2092
      7 H          -1.4054   -0.7607   -0.0009 H       1  LIG1        0.0656
      8 H          -2.5135   -3.1487    0.0004 H       1  LIG1        0.0672
      9 O          -5.2431   -3.1437    0.0002 O.3     1  LIG1       -0.4796
     10 C          -6.6454   -2.8635    0.0002 C.3     1  LIG1        0.0804
     11 H          -7.1928   -3.7829    0.0001 H       1  LIG1        0.0660
     12 H          -6.8964   -2.2991    0.8739 H       1  LIG1        0.0660
     13 H          -6.8963   -2.2990   -0.8734 H       1  LIG1        0.0660
     14 O          -2.6846    1.5410   -0.0003 O.3     1  LIG1       -0.5046
     15 H          -3.3554    2.2278   -0.0003 H       1  LIG1        0.2922
     16 C          -6.3118    1.5712    1.0507 C.ar    1  LIG1        0.0376
     17 C          -5.4065    1.3366   -0.0004 C.ar    1  LIG1        0.0222
     18 C          -5.3299    2.2706   -1.0353 C.ar    1  LIG1       -0.0489
     19 C          -6.1528    3.3971   -0.9860 C.ar    1  LIG1       -0.0335
     20 C          -7.0263    3.5433    0.1072 C.ar    1  LIG1        0.0907
     21 N          -7.1130    2.6524    1.1141 N.ar    1  LIG1       -0.2527
     22 H          -4.6352    2.1207   -1.8738 H       1  LIG1        0.0625
     23 H          -6.4192    0.7308    2.0367 H       1  LIG1        0.0836
     24 H          -6.1192    4.2954   -1.9251 H       1  LIG1        0.0640
     25 C          -7.8120    4.5751    0.1978 C.ar    1  LIG1        0.1087
     26 C          -8.8199    4.9902   -0.6144 C.ar    1  LIG1        0.1596
     27 C          -9.3578    6.1909   -0.0491 C.ar    1  LIG1        0.0950
     28 C          -8.6561    6.4558    1.0847 C.ar    1  LIG1        0.1019
     29 N          -7.7085    5.4692    1.2394 N.ar    1  LIG1       -0.3466
     30 H          -7.0538    5.4114    1.9852 H       1  LIG1        0.1662
     31 O          -9.2182    4.4034   -1.7040 O.3     1  LIG1       -0.5034
     32 H          -8.5676    3.7506   -1.9725 H       1  LIG1        0.2923
     33 C         -10.3367    6.8995   -0.5284 C.1     1  LIG1       -0.0637
     34 C         -11.2412    7.5542   -0.9713 C.1     1  LIG1       -0.1137
     35 H         -12.0469    8.1373   -1.3659 H       1  LIG1        0.1232
     36 C          -8.7700    7.4288    1.9393 C.ar    1  LIG1        0.1558
     37 C          -8.2656    7.6993    3.1944 C.ar    1  LIG1        0.0275
     38 C          -8.8028    8.9848    3.5892 C.ar    1  LIG1        0.1583
     39 C          -9.6001    9.4148    2.5485 C.ar    1  LIG1        0.1341
     40 O          -9.5959    8.4725    1.5195 O.2     1  LIG1       -0.4577
     41 H         -10.3315   10.4636    2.3142 H       1  LIG1        0.1068
     42 H          -7.4643    6.9629    3.9056 H       1  LIG1        0.0693
     43 O          -8.5636    9.5932    4.7129 O.3     1  LIG1       -0.4919
     44 C          -7.2212    9.3233    5.1254 C.3     1  LIG1        0.0789
     45 H          -7.0247    9.8243    6.0502 H       1  LIG1        0.0660
     46 H          -7.0936    8.2690    5.2568 H       1  LIG1        0.0660
     47 H          -6.5409    9.6744    4.3779 H       1  LIG1        0.0660
@<TRIPOS>BOND
     1    32    31    1
     2    24    19    1
     3    22    18    1
     4    31    26    1
     5    35    34    1
     6    18    19   ar
     7    18    17   ar
     8    19    20   ar
     9    34    33    3
    10    13    10    1
    11    26    27   ar
    12    26    25   ar
    13    33    27    1
    14    27    28   ar
    15     7     3    1
    16    17     5    1
    17    17    16   ar
    18    15    14    1
    19    14     4    1
    20     5     4   ar
    21     5     6   ar
    22     4     3   ar
    23     6     1   ar
    24    11    10    1
    25     1     2   ar
    26     1     9    1
    27     2     3   ar
    28     2     8    1
    29    10     9    1
    30    10    12    1
    31    20    25    1
    32    20    21   ar
    33    25    29   ar
    34    16    21   ar
    35    16    23    1
    36    28    29   ar
    37    28    36    1
    38    29    30    1
    39    40    36   ar
    40    40    39   ar
    41    36    37   ar
    42    41    39    1
    43    39    38   ar
    44    37    38   ar
    45    37    42    1
    46    38    43    1
    47    47    44    1
    48    43    44    1
    49    44    46    1
    50    44    45    1
