@<TRIPOS>MOLECULE
mol_data/noopt/geoms/mol2/6lf6ll(190)13id(30)6la(230).out
 58 49 0 0 0
SMALL
GASTEIGER

@<TRIPOS>ATOM
      1 C          -4.5775   -2.0270    0.0001 C.2     1  LIG1        0.2113
      2 C          -3.1706   -2.0270    0.0001 C.2     1  LIG1       -0.0181
      3 C          -2.5039   -0.8004    0.0001 C.3     1  LIG1       -0.0037
      4 C          -3.2580    0.3743   -0.0001 C.3     2  LIG2       -0.0309
      5 C          -4.6612    0.2715   -0.0003 C.2     1  LIG1        0.1061
      6 N          -5.3207   -0.9034   -0.0001 N.2     1  LIG1       -0.2108
      7 H          -1.4054   -0.7607   -0.0009 H       1  LIG1        0.0356
      8 H          -2.5135   -3.1487    0.0004 H       1  LIG1        0.0628
      9 O          -5.2431   -3.1437    0.0002 O.2     1  LIG1       -0.4798
     10 C          -6.6454   -2.8635    0.0002 C.3     1  LIG1        0.0804
     11 H          -7.1928   -3.7829    0.0001 H       1  LIG1        0.0660
     12 H          -6.8964   -2.2991    0.8739 H       1  LIG1        0.0660
     13 H          -6.8963   -2.2990   -0.8734 H       1  LIG1        0.0660
     14 O          -2.6846    1.5410   -0.0003 O.3     3  HOH3        0.0000
     15 H          -3.3554    2.2278   -0.0003 H       1  LIG1        0.2937
     16 C          -4.8347    2.6047    0.2100 C.ar    1  LIG1        0.2226
     17 C          -5.4065    1.3366   -0.0004 C.ar    1  LIG1        0.0676
     18 C          -6.7845    1.2528   -0.2080 C.ar    1  LIG1        0.0016
     19 C          -7.5382    2.4277   -0.1983 C.ar    1  LIG1        0.2056
     20 C          -6.8752    3.6491    0.0207 C.ar    1  LIG1        0.1222
     21 N          -5.5467    3.7483    0.2225 N.ar    1  LIG1       -0.2086
     22 H          -7.2670    0.2793   -0.3747 H       1  LIG1        0.0665
     23 O          -3.5563    2.7339    0.4076 O.3     1  LIG1       -0.4919
     24 C          -2.9514    1.4402    0.4801 C.3     4  LIG4       -0.0531
     25 H          -1.8992    1.5469    0.6426 H       2  LIG2        0.0265
     26 H          -3.3832    0.8894    1.2895 H       2  LIG2        0.0265
     27 H          -3.1191    0.9161   -0.4375 H       1  LIG1        0.0309
     28 O          -8.8244    2.4027   -0.3865 O.3     1  LIG1       -0.2856
     29 C          -9.3227    3.7413   -0.4556 C.3     5  LIG5       -0.0531
     30 H         -10.3812    3.7202   -0.6107 H       3  HOH3        0.0265
     31 H          -9.1065    4.2502    0.4605 H       3  HOH3        0.0265
     32 H          -8.8534    4.2551   -1.2684 H       5  LIG5        0.1629
     33 C          -7.5335    4.7699    0.0386 C.2     1  LIG1        0.0169
     34 C          -7.1889    5.9874    0.5356 C.2     1  LIG1       -0.0370
     35 C          -8.2858    6.8750    0.2916 C.3     6  LIG6        0.0000
     36 C          -9.2518    6.1614   -0.3453 C.3     7  LIG7        0.0349
     37 N          -8.7956    4.8720   -0.5018 N.3     8  LIG8       -0.1629
     38 H          -9.2974    4.1323   -0.9365 H       9  UNK9        0.0000
     39 C          -6.0691    6.2866    1.1248 C.3     1  LIG1       -0.0388
     40 H          -6.2083    7.1537    1.7361 H       1  LIG1        0.0278
     41 H          -5.3202    6.4868    0.3872 H       1  LIG1        0.0278
     42 H          -5.7572    5.4656    1.7361 H       1  LIG1        0.0278
     43 N          -8.4060    9.2406    0.9043 N.2     6  LIG6       -0.1561
     44 C          -8.3497    8.1320    0.6172 C.2     6  LIG6        0.0697
     45 C         -11.1282    7.5579   -0.1276 C.2     7  LIG7        0.2633
     46 C         -10.4251    6.5236   -0.7721 C.2     7  LIG7        0.0219
     47 C         -11.0157    5.9015   -1.8736 C.2     7  LIG7       -0.0662
     48 C         -12.2774    6.3294   -2.2904 C.3     7  LIG7        0.0220
     49 C         -12.9013    7.3719   -1.5808 C.2     7  LIG7        0.0058
     50 N         -12.3459    7.9833   -0.5163 N.am    7  LIG7       -0.1885
     51 H         -10.4971    5.0890   -2.4019 H       7  LIG7        0.0583
     52 H         -14.0759    7.8052   -1.9307 H       7  LIG7        0.0762
     53 O         -10.6197    8.1674    0.9020 O.2     7  LIG7       -0.2684
     54 C          -9.3979    7.5277    1.2799 C.3    10  LIG10      -0.0531
     55 H          -8.9797    8.0297    2.1272 H       7  LIG7        0.0265
     56 H          -9.5931    6.5061    1.5312 H       7  LIG7        0.0265
     57 H          -8.7067    7.5686    0.4642 H       6  LIG6        0.0864
     58 H         -12.8696    5.7823   -3.3102 H       7  LIG7        0.0408
@<TRIPOS>BOND
     1    58    48    1
     2    51    47    1
     3    48    47    1
     4    48    49    1
     5    52    49    1
     6    47    46    2
     7    49    50    2
     8    32    37    1
     9    13    10    1
    10    46    36    1
    11    46    45    1
    12    30    29    1
    13    50    45    1
    14    29    31    1
    15    27     4    1
    16    28    19    1
    17    22    18    1
    18    18    19   ar
    19    18    17   ar
    20    19    20   ar
    21    45    53    2
    22     7     3    1
    23    17     5    1
    24    17    16   ar
    25    15    23    1
    26     5     6    2
    27     6     1    1
    28    11    10    1
    29     2     3    1
    30     2     1    2
    31     2     8    1
    32     1     9    1
    33    10     9    1
    34    10    12    1
    35    20    33    1
    36    20    21   ar
    37    33    34    2
    38    16    21   ar
    39    16    23    1
    40    41    39    1
    41    57    44    1
    42    24    25    1
    43    24    26    1
    44    34    39    1
    45    44    43    2
    46    39    42    1
    47    39    40    1
    48    54    56    1
    49    54    55    1
