@<TRIPOS>MOLECULE
mol_data/noopt/geoms/mol2/6lf6lf6lf.out
 44 46 0 0 0
SMALL
GASTEIGER

@<TRIPOS>ATOM
      1 C          -4.5775   -2.0270    0.0001 C.ar    1  LIG1        0.2152
      2 C          -3.1706   -2.0270    0.0001 C.ar    1  LIG1        0.0035
      3 C          -2.5039   -0.8004    0.0001 C.ar    1  LIG1       -0.0130
      4 C          -3.2580    0.3743   -0.0001 C.ar    1  LIG1        0.1431
      5 C          -4.6612    0.2715   -0.0003 C.ar    1  LIG1        0.1212
      6 N          -5.3207   -0.9034   -0.0001 N.ar    1  LIG1       -0.2090
      7 H          -1.4054   -0.7607   -0.0009 H       1  LIG1        0.0656
      8 H          -2.5135   -3.1487    0.0004 H       1  LIG1        0.0672
      9 O          -5.2431   -3.1437    0.0002 O.3     1  LIG1       -0.4796
     10 C          -6.6454   -2.8635    0.0002 C.3     1  LIG1        0.0804
     11 H          -7.1928   -3.7829    0.0001 H       1  LIG1        0.0660
     12 H          -6.8964   -2.2991    0.8739 H       1  LIG1        0.0660
     13 H          -6.8963   -2.2990   -0.8734 H       1  LIG1        0.0660
     14 O          -2.6846    1.5410   -0.0003 O.3     1  LIG1       -0.5046
     15 H          -3.3554    2.2278   -0.0003 H       1  LIG1        0.2922
     16 C          -6.8088    1.2233   -0.0003 C.ar    1  LIG1        0.2248
     17 C          -5.4065    1.3366   -0.0004 C.ar    1  LIG1        0.0690
     18 C          -4.8408    2.6129   -0.0003 C.ar    1  LIG1       -0.0036
     19 C          -5.6871    3.7231   -0.0003 C.ar    1  LIG1        0.1438
     20 C          -7.0774    3.5076   -0.0004 C.ar    1  LIG1        0.1213
     21 N          -7.6401    2.2834   -0.0003 N.ar    1  LIG1       -0.2085
     22 H          -3.7491    2.7410   -0.0014 H       1  LIG1        0.0663
     23 O          -7.3823    0.0566   -0.0003 O.3     1  LIG1       -0.4792
     24 C          -8.8026    0.2229   -0.0004 C.3     1  LIG1        0.0804
     25 H          -9.2743   -0.7375   -0.0005 H       1  LIG1        0.0660
     26 H          -9.0983    0.7653    0.8734 H       1  LIG1        0.0660
     27 H          -9.0982    0.7655   -0.8739 H       1  LIG1        0.0660
     28 O          -5.2095    4.9322   -0.0004 O.3     1  LIG1       -0.5046
     29 H          -5.9335    5.5627   -0.0004 H       1  LIG1        0.2922
     30 C          -9.2948    4.2833   -0.0001 C.ar    1  LIG1        0.2242
     31 C          -7.9061    4.5092   -0.0003 C.ar    1  LIG1        0.0690
     32 C          -7.4450    5.8270   -0.0001 C.ar    1  LIG1       -0.0043
     33 C          -8.3780    6.8653    0.0002 C.ar    1  LIG1        0.1357
     34 C          -9.7465    6.5385    0.0002 C.ar    1  LIG1        0.0728
     35 N         -10.2087    5.2730    0.0002 N.ar    1  LIG1       -0.2171
     36 H          -6.3672    6.0425   -0.0012 H       1  LIG1        0.0663
     37 H         -10.6531    7.4701    0.0005 H       1  LIG1        0.0868
     38 O          -9.7724    3.0742   -0.0002 O.3     1  LIG1       -0.4792
     39 C         -11.2015    3.1256   -0.0003 C.3     1  LIG1        0.0804
     40 H         -11.5942    2.1302   -0.0005 H       1  LIG1        0.0660
     41 H         -11.5399    3.6423    0.8735 H       1  LIG1        0.0660
     42 H         -11.5398    3.6426   -0.8738 H       1  LIG1        0.0660
     43 O          -7.9993    8.1090    0.0002 O.3     1  LIG1       -0.5052
     44 H          -8.7717    8.6791    0.0002 H       1  LIG1        0.2922
@<TRIPOS>BOND
     1    27    24    1
     2    42    39    1
     3    13    10    1
     4    22    18    1
     5    36    32    1
     6     7     3    1
     7    25    24    1
     8    40    39    1
     9    17     5    1
    10    17    16   ar
    11    17    18   ar
    12    29    28    1
    13    20    21   ar
    14    20    31    1
    15    20    19   ar
    16    28    19    1
    17    24    23    1
    18    24    26    1
    19    15    14    1
    20    14     4    1
    21     5     6   ar
    22     5     4   ar
    23    16    23    1
    24    16    21   ar
    25    18    19   ar
    26    31    30   ar
    27    31    32   ar
    28    39    38    1
    29    39    41    1
    30    38    30    1
    31     6     1   ar
    32     4     3   ar
    33    30    35   ar
    34    32    33   ar
    35    11    10    1
    36     1     2   ar
    37     1     9    1
    38     3     2   ar
    39     2     8    1
    40    35    34   ar
    41    34    33   ar
    42    34    37    1
    43    10     9    1
    44    10    12    1
    45    33    43    1
    46    43    44    1
