@<TRIPOS>MOLECULE
mol_data/noopt/geoms/mol2/6lg.out
 16 16 0 0 0
SMALL
GASTEIGER

@<TRIPOS>ATOM
      1 C          -4.5775   -2.0270    0.0001 C.ar    1  LIG1        0.2144
      2 C          -3.1706   -2.0270    0.0001 C.ar    1  LIG1        0.0010
      3 C          -2.5039   -0.8004    0.0001 C.ar    1  LIG1       -0.0421
      4 C          -3.2580    0.3743   -0.0001 C.ar    1  LIG1        0.0231
      5 C          -4.6612    0.2715   -0.0003 C.ar    1  LIG1        0.0445
      6 N          -5.3207   -0.9034   -0.0001 N.ar    1  LIG1       -0.2202
      7 H          -1.4054   -0.7607   -0.0009 H       1  LIG1        0.0631
      8 H          -2.5135   -3.1487    0.0004 H       1  LIG1        0.0671
      9 H          -5.4065    1.3366   -0.0004 H       1  LIG1        0.0842
     10 O          -5.2431   -3.1437    0.0002 O.3     1  LIG1       -0.4796
     11 C          -6.6454   -2.8635    0.0002 C.3     1  LIG1        0.0804
     12 H          -7.1928   -3.7829    0.0001 H       1  LIG1        0.0660
     13 H          -6.8964   -2.2991    0.8739 H       1  LIG1        0.0660
     14 H          -6.8963   -2.2990   -0.8734 H       1  LIG1        0.0660
     15 S          -2.6846    1.5410   -0.0003 S.3     1  LIG1       -0.1411
     16 H          -3.6000    2.4781   -0.0004 H       1  LIG1        0.1072
@<TRIPOS>BOND
     1    14    11    1
     2     7     3    1
     3     9     5    1
     4    16    15    1
     5     5     4   ar
     6     5     6   ar
     7    15     4    1
     8     4     3   ar
     9     6     1   ar
    10    12    11    1
    11     1     2   ar
    12     1    10    1
    13     2     3   ar
    14     2     8    1
    15    11    10    1
    16    11    13    1
