@<TRIPOS>MOLECULE
mol_data/noopt/geoms/mol2/6lh13aa(110)4ae(130)12hl(10).out
 50 53 0 0 0
SMALL
GASTEIGER

@<TRIPOS>ATOM
      1 C          -4.5775   -2.0270    0.0001 C.ar    1  LIG1        0.2151
      2 C          -3.1706   -2.0270    0.0001 C.ar    1  LIG1        0.0017
      3 C          -2.5039   -0.8004    0.0001 C.ar    1  LIG1       -0.0339
      4 C          -3.2580    0.3743   -0.0001 C.ar    1  LIG1        0.0526
      5 C          -4.6612    0.2715   -0.0003 C.ar    1  LIG1        0.1114
      6 N          -5.3207   -0.9034   -0.0001 N.ar    1  LIG1       -0.2096
      7 H          -1.4054   -0.7607   -0.0009 H       1  LIG1        0.0638
      8 H          -2.5135   -3.1487    0.0004 H       1  LIG1        0.0671
      9 O          -5.2431   -3.1437    0.0002 O.3     1  LIG1       -0.4796
     10 C          -6.6454   -2.8635    0.0002 C.3     1  LIG1        0.0804
     11 H          -7.1928   -3.7829    0.0001 H       1  LIG1        0.0660
     12 H          -6.8964   -2.2991    0.8739 H       1  LIG1        0.0660
     13 H          -6.8963   -2.2990   -0.8734 H       1  LIG1        0.0660
     14 N          -2.6846    1.5410   -0.0003 N.pl3   1  LIG1       -0.3563
     15 H          -1.8048    1.4799   -0.4718 H       1  LIG1        0.1424
     16 H          -3.2703    2.2002   -0.4718 H       1  LIG1        0.1424
     17 C          -5.4065    1.3366   -0.0004 C.ar    1  LIG1        0.0673
     18 C          -6.2236    1.8414    0.9617 C.ar    1  LIG1       -0.0343
     19 C          -6.8108    3.0384    0.4392 C.ar    1  LIG1       -0.0358
     20 C          -6.3254    3.2134   -0.8185 C.ar    1  LIG1        0.0470
     21 N          -5.4657    2.1735   -1.0918 N.ar    1  LIG1       -0.3529
     22 H          -4.9664    2.0474   -1.9420 H       1  LIG1        0.1659
     23 H          -6.4322    1.3282    2.1377 H       1  LIG1        0.0639
     24 H          -7.6527    3.8170    1.0516 H       1  LIG1        0.0639
     25 C          -7.6017    5.0718   -1.4677 C.ar    1  LIG1       -0.0519
     26 C          -7.8161    6.0650   -2.4429 C.ar    1  LIG1       -0.0492
     27 C          -6.5597    4.1486   -1.6906 C.ar    1  LIG1       -0.0005
     28 C          -7.0288    6.1378   -3.5898 C.ar    1  LIG1        0.0346
     29 H          -8.6150    6.7873   -2.2909 H       1  LIG1        0.0625
     30 C          -5.7734    4.2209   -2.8354 C.ar    1  LIG1       -0.0365
     31 C          -6.0018    5.2151   -3.7924 C.ar    1  LIG1        0.0360
     32 H          -4.9760    3.4973   -2.9844 H       1  LIG1        0.0636
     33 H          -8.3689    5.0549   -0.4183 H       1  LIG1        0.0624
     34 C          -5.2636    5.2777   -4.8607 C.1     1  LIG1       -0.0689
     35 C          -4.5816    5.3355   -5.8477 C.1     1  LIG1       -0.1139
     36 H          -3.9740    5.3870   -6.7270 H       1  LIG1        0.1232
     37 C          -7.2545    7.0679   -4.4696 C.ar    1  LIG1        0.1602
     38 C          -6.5196    8.0940   -5.0264 C.ar    1  LIG1        0.1133
     39 C          -7.3933    8.7689   -5.9635 C.ar    1  LIG1        0.1789
     40 C          -8.6046    8.1100   -5.9171 C.ar    1  LIG1        0.1360
     41 O          -8.5439    7.0573   -5.0034 O.2     1  LIG1       -0.4572
     42 H          -9.7536    8.2411   -6.5110 H       1  LIG1        0.1068
     43 N          -5.2846    8.4145   -4.7772 N.pl3   1  LIG1       -0.3522
     44 H          -4.6754    7.7290   -5.1759 H       1  LIG1        0.1425
     45 H          -5.0855    9.3096   -5.1760 H       1  LIG1        0.1425
     46 O          -7.0724    9.7950   -6.6944 O.3     1  LIG1       -0.4901
     47 C          -5.6681    9.7694   -6.9628 C.3     1  LIG1        0.0790
     48 H          -5.4045   10.6140   -7.5646 H       1  LIG1        0.0660
     49 H          -5.1278    9.8065   -6.0399 H       1  LIG1        0.0660
     50 H          -5.4211    8.8686   -7.4847 H       1  LIG1        0.0660
@<TRIPOS>BOND
     1    48    47    1
     2    50    47    1
     3    47    46    1
     4    47    49    1
     5    36    35    1
     6    46    39    1
     7    42    40    1
     8    39    40   ar
     9    39    38   ar
    10    40    41   ar
    11    35    34    3
    12    45    43    1
    13    44    43    1
    14    38    43    1
    15    38    37   ar
    16    41    37   ar
    17    34    31    1
    18    37    28    1
    19    31    28   ar
    20    31    30   ar
    21    28    26   ar
    22    32    30    1
    23    30    27   ar
    24    26    29    1
    25    26    25   ar
    26    22    21    1
    27    27    25   ar
    28    27    20    1
    29    25    33    1
    30    21    20   ar
    31    21    17   ar
    32    13    10    1
    33    20    19   ar
    34    16    14    1
    35    15    14    1
    36     7     3    1
    37    17     5    1
    38    17    18   ar
    39     5     4   ar
    40     5     6   ar
    41    14     4    1
    42     4     3   ar
    43     6     1   ar
    44    11    10    1
    45     3     2   ar
    46     2     1   ar
    47     2     8    1
    48     1     9    1
    49    10     9    1
    50    10    12    1
    51    19    18   ar
    52    19    24    1
    53    18    23    1
