@<TRIPOS>MOLECULE
mol_data/noopt/geoms/mol2/6lh13dd-6fa6hd.out
 49 52 0 0 0
SMALL
GASTEIGER

@<TRIPOS>ATOM
      1 C          -4.5775   -2.0270    0.0001 C.ar    1  LIG1        0.2151
      2 C          -3.1706   -2.0270    0.0001 C.ar    1  LIG1        0.0017
      3 C          -2.5039   -0.8004    0.0001 C.ar    1  LIG1       -0.0339
      4 C          -3.2580    0.3743   -0.0001 C.ar    1  LIG1        0.0526
      5 C          -4.6612    0.2715   -0.0003 C.ar    1  LIG1        0.1127
      6 N          -5.3207   -0.9034   -0.0001 N.ar    1  LIG1       -0.2095
      7 H          -1.4054   -0.7607   -0.0009 H       1  LIG1        0.0638
      8 H          -2.5135   -3.1487    0.0004 H       1  LIG1        0.0671
      9 O          -5.2431   -3.1437    0.0002 O.3     1  LIG1       -0.4796
     10 C          -6.6454   -2.8635    0.0002 C.3     1  LIG1        0.0804
     11 H          -7.1928   -3.7829    0.0001 H       1  LIG1        0.0660
     12 H          -6.8964   -2.2991    0.8739 H       1  LIG1        0.0660
     13 H          -6.8963   -2.2990   -0.8734 H       1  LIG1        0.0660
     14 N          -2.6846    1.5410   -0.0003 N.pl3   1  LIG1       -0.3563
     15 H          -1.8048    1.4799   -0.4718 H       1  LIG1        0.1424
     16 H          -3.2703    2.2002   -0.4718 H       1  LIG1        0.1424
     17 C          -5.4065    1.3366   -0.0004 C.ar    1  LIG1        0.0862
     18 C          -5.0647    2.6523    0.0158 C.ar    1  LIG1        0.0965
     19 C          -6.2798    3.4100    0.0080 C.ar    1  LIG1        0.0951
     20 C          -7.3107    2.5241   -0.0144 C.ar    1  LIG1        0.0709
     21 N          -6.7805    1.2536   -0.0191 N.ar    1  LIG1       -0.3507
     22 H          -7.3063    0.4102   -0.0343 H       1  LIG1        0.1660
     23 N          -2.7901    3.5526    0.0542 N.1     1  LIG1       -0.1908
     24 C          -3.8561    3.1306    0.0362 C.1     1  LIG1        0.1026
     25 N          -6.4726    5.8488    0.0299 N.1     1  LIG1       -0.1908
     26 C          -6.3823    4.7059    0.0196 C.1     1  LIG1        0.1026
     27 C          -9.4849    1.6348   -0.0368 C.ar    1  LIG1        0.2222
     28 C          -8.5951    2.7246   -0.0290 C.ar    1  LIG1        0.0610
     29 C          -9.1234    4.0168   -0.0369 C.ar    1  LIG1       -0.0455
     30 C         -10.5102    4.1757   -0.0524 C.ar    1  LIG1       -0.0347
     31 C         -11.3180    3.0238   -0.0594 C.ar    1  LIG1        0.0781
     32 N         -10.8252    1.7698   -0.0517 N.ar    1  LIG1       -0.2124
     33 H          -8.4594    4.8927   -0.0322 H       1  LIG1        0.0626
     34 O          -9.0409    0.4129   -0.0298 O.3     1  LIG1       -0.4919
     35 H          -8.0810    0.4208   -0.0281 H       1  LIG1        0.2937
     36 H         -11.0511    5.3577   -0.0605 H       1  LIG1        0.0639
     37 C         -13.4135    1.9623   -0.0814 C.ar    1  LIG1        0.1254
     38 C         -12.6144    3.1202   -0.0737 C.ar    1  LIG1        0.0412
     39 C         -13.2451    4.3656   -0.0815 C.ar    1  LIG1       -0.0304
     40 C         -14.6401    4.4123   -0.0968 C.ar    1  LIG1        0.0706
     41 C         -15.3526    3.1991   -0.1037 C.ar    1  LIG1        0.0471
     42 N         -14.7603    1.9889   -0.0961 N.ar    1  LIG1       -0.2388
     43 H         -12.6538    5.2922   -0.0769 H       1  LIG1        0.0638
     44 H         -16.6524    3.1907   -0.1178 H       1  LIG1        0.0843
     45 N         -12.8726    0.7802   -0.0746 N.pl3   1  LIG1       -0.3426
     46 H         -13.4754    0.1351   -0.5442 H       1  LIG1        0.1437
     47 H         -11.9904    0.8145   -0.5442 H       1  LIG1        0.1437
     48 N         -15.8341    6.5477   -0.1117 N.1     1  LIG1       -0.1908
     49 C         -15.2746    5.5469   -0.1047 C.1     1  LIG1        0.1007
@<TRIPOS>BOND
     1    13    10    1
     2    47    45    1
     3    46    45    1
     4    16    14    1
     5    15    14    1
     6    44    41    1
     7    48    49    3
     8    49    40    1
     9    41    40   ar
    10    41    42   ar
    11    40    39   ar
    12    42    37   ar
    13    39    43    1
    14    39    38   ar
    15    37    45    1
    16    37    38   ar
    17    38    31    1
    18    36    30    1
    19    31    30   ar
    20    31    32   ar
    21    30    29   ar
    22    32    27   ar
    23    29    33    1
    24    29    28   ar
    25    27    34    1
    26    27    28   ar
    27    22    21    1
    28    34    35    1
    29    28    20    1
    30    21    20   ar
    31    21    17   ar
    32    20    19   ar
    33     7     3    1
    34    17     5    1
    35    17    18   ar
    36    14     4    1
    37     5     4   ar
    38     5     6   ar
    39     4     3   ar
    40     6     1   ar
    41    11    10    1
    42     1     2   ar
    43     1     9    1
    44     3     2   ar
    45     2     8    1
    46    10     9    1
    47    10    12    1
    48    19    18   ar
    49    19    26    1
    50    18    24    1
    51    26    25    3
    52    24    23    3
