@<TRIPOS>MOLECULE
mol_data/noopt/geoms/mol2/6lh6lf(250)12fi(200)6dh(290).out
 54 57 0 0 0
SMALL
GASTEIGER

@<TRIPOS>ATOM
      1 C          -4.5775   -2.0270    0.0001 C.ar    1  LIG1        0.2151
      2 C          -3.1706   -2.0270    0.0001 C.ar    1  LIG1        0.0017
      3 C          -2.5039   -0.8004    0.0001 C.ar    1  LIG1       -0.0339
      4 C          -3.2580    0.3743   -0.0001 C.ar    1  LIG1        0.0513
      5 C          -4.6612    0.2715   -0.0003 C.ar    1  LIG1        0.1005
      6 N          -5.3207   -0.9034   -0.0001 N.ar    1  LIG1       -0.2109
      7 H          -1.4054   -0.7607   -0.0009 H       1  LIG1        0.0638
      8 H          -2.5135   -3.1487    0.0004 H       1  LIG1        0.0671
      9 O          -5.2431   -3.1437    0.0002 O.3     1  LIG1       -0.4796
     10 C          -6.6454   -2.8635    0.0002 C.3     1  LIG1        0.0804
     11 H          -7.1928   -3.7829    0.0001 H       1  LIG1        0.0660
     12 H          -6.8964   -2.2991    0.8739 H       1  LIG1        0.0660
     13 H          -6.8963   -2.2990   -0.8734 H       1  LIG1        0.0660
     14 N          -2.6846    1.5410   -0.0003 N.pl3   1  LIG1       -0.3563
     15 H          -1.8048    1.4799   -0.4718 H       1  LIG1        0.1424
     16 H          -3.2703    2.2002   -0.4718 H       1  LIG1        0.1424
     17 C          -5.4737    2.1577    1.1401 C.ar    1  LIG1        0.2248
     18 C          -5.4065    1.3366   -0.0004 C.ar    1  LIG1        0.0672
     19 C          -6.1552    1.6931   -1.1236 C.ar    1  LIG1       -0.0036
     20 C          -6.9387    2.8471   -1.0702 C.ar    1  LIG1        0.1467
     21 C          -6.9405    3.6034    0.1162 C.ar    1  LIG1        0.1546
     22 N          -6.2242    3.2743    1.2089 N.ar    1  LIG1       -0.2054
     23 H          -6.1287    1.0756   -2.0326 H       1  LIG1        0.0663
     24 O          -4.7948    1.8674    2.2101 O.3     1  LIG1       -0.4792
     25 C          -5.0756    0.5214    2.6029 C.3     1  LIG1        0.0804
     26 H          -4.5165    0.2828    3.4836 H       1  LIG1        0.0660
     27 H          -6.1213    0.4197    2.8059 H       1  LIG1        0.0660
     28 H          -4.7990   -0.1457    1.8134 H       1  LIG1        0.0660
     29 O          -7.6539    3.2216   -2.0893 O.3     1  LIG1       -0.5045
     30 H          -8.2499    2.5121   -2.3404 H       1  LIG1        0.2922
     31 C          -7.6539    4.6857    0.2144 C.ar    1  LIG1        0.1989
     32 C          -8.9753    5.0157   -0.0044 C.ar    1  LIG1        0.1679
     33 C          -9.1074    6.4247    0.3029 C.ar    1  LIG1        0.0376
     34 C          -7.8572    6.8623    0.6893 C.ar    1  LIG1        0.1451
     35 O          -6.9441    5.8083    0.6430 O.2     1  LIG1       -0.4490
     36 O          -9.9341    4.2356   -0.4071 O.3     1  LIG1       -0.5030
     37 H          -9.5993    3.3414   -0.5063 H       1  LIG1        0.2923
     38 C         -10.2041    7.1184    0.2219 C.3     1  LIG1       -0.0326
     39 H         -10.9986    6.5873    0.7031 H       1  LIG1        0.0280
     40 H         -10.4519    7.2751   -0.8073 H       1  LIG1        0.0280
     41 H         -10.0645    8.0639    0.7030 H       1  LIG1        0.0280
     42 C          -7.5911    8.4769    2.3748 C.ar    1  LIG1        0.1508
     43 C          -7.3509    7.9960    1.0746 C.ar    1  LIG1        0.0552
     44 C          -6.5606    8.7621    0.2158 C.ar    1  LIG1       -0.0262
     45 C          -6.0415    9.9718    0.6802 C.ar    1  LIG1        0.0437
     46 C          -6.3379   10.3682    1.9973 C.ar    1  LIG1        0.0497
     47 N          -7.0983    9.6415    2.8392 N.ar    1  LIG1       -0.2421
     48 H          -6.3520    8.4192   -0.8075 H       1  LIG1        0.0644
     49 H          -5.8777   11.4861    2.4753 H       1  LIG1        0.0849
     50 N          -8.9640    7.2020    3.9482 N.1     1  LIG1       -0.1893
     51 C          -8.3206    7.7995    3.2108 C.1     1  LIG1        0.1198
     52 N          -5.3002   10.7213   -0.0806 N.pl3   1  LIG1       -0.3568
     53 H          -4.7236   10.1432   -0.6579 H       1  LIG1        0.1424
     54 H          -5.8847   11.2914   -0.6579 H       1  LIG1        0.1424
@<TRIPOS>BOND
     1    30    29    1
     2    29    20    1
     3    23    19    1
     4    19    20   ar
     5    19    18   ar
     6    20    21   ar
     7    13    10    1
     8    48    44    1
     9    40    38    1
    10    54    52    1
    11    53    52    1
    12    37    36    1
    13    16    14    1
    14    15    14    1
    15    36    32    1
    16    52    45    1
    17    32    31   ar
    18    32    33   ar
    19     7     3    1
    20    18     5    1
    21    18    17   ar
    22    14     4    1
    23     5     6   ar
    24     5     4   ar
    25     6     1   ar
    26     4     3   ar
    27    11    10    1
    28     1     2   ar
    29     1     9    1
    30     2     3   ar
    31     2     8    1
    32    10     9    1
    33    10    12    1
    34    21    31    1
    35    21    22   ar
    36    31    35   ar
    37    44    45   ar
    38    44    43   ar
    39    38    33    1
    40    38    41    1
    41    38    39    1
    42    33    34   ar
    43    35    34   ar
    44    45    46   ar
    45    34    43    1
    46    43    42   ar
    47    17    22   ar
    48    17    24    1
    49    28    25    1
    50    46    49    1
    51    46    47   ar
    52    24    25    1
    53    42    47   ar
    54    42    51    1
    55    25    27    1
    56    25    26    1
    57    51    50    3
