@<TRIPOS>MOLECULE
mol_data/noopt/geoms/mol2/6lh6lh6lh6lh.out
 62 65 0 0 0
SMALL
GASTEIGER

@<TRIPOS>ATOM
      1 C          -4.5775   -2.0270    0.0001 C.ar    1  LIG1        0.2151
      2 C          -3.1706   -2.0270    0.0001 C.ar    1  LIG1        0.0017
      3 C          -2.5039   -0.8004    0.0001 C.ar    1  LIG1       -0.0339
      4 C          -3.2580    0.3743   -0.0001 C.ar    1  LIG1        0.0513
      5 C          -4.6612    0.2715   -0.0003 C.ar    1  LIG1        0.1005
      6 N          -5.3207   -0.9034   -0.0001 N.ar    1  LIG1       -0.2109
      7 H          -1.4054   -0.7607   -0.0009 H       1  LIG1        0.0638
      8 H          -2.5135   -3.1487    0.0004 H       1  LIG1        0.0671
      9 O          -5.2431   -3.1437    0.0002 O.3     1  LIG1       -0.4796
     10 C          -6.6454   -2.8635    0.0002 C.3     1  LIG1        0.0804
     11 H          -7.1928   -3.7829    0.0001 H       1  LIG1        0.0660
     12 H          -6.8964   -2.2991    0.8739 H       1  LIG1        0.0660
     13 H          -6.8963   -2.2990   -0.8734 H       1  LIG1        0.0660
     14 N          -2.6846    1.5410   -0.0003 N.pl3   1  LIG1       -0.3563
     15 H          -1.8048    1.4799   -0.4718 H       1  LIG1        0.1424
     16 H          -3.2703    2.2002   -0.4718 H       1  LIG1        0.1424
     17 C          -6.8088    1.2233   -0.0003 C.ar    1  LIG1        0.2246
     18 C          -5.4065    1.3366   -0.0004 C.ar    1  LIG1        0.0655
     19 C          -4.8408    2.6129   -0.0003 C.ar    1  LIG1       -0.0246
     20 C          -5.6871    3.7231   -0.0003 C.ar    1  LIG1        0.0519
     21 C          -7.0774    3.5076   -0.0004 C.ar    1  LIG1        0.1005
     22 N          -7.6401    2.2834   -0.0003 N.ar    1  LIG1       -0.2103
     23 H          -3.7491    2.7410   -0.0014 H       1  LIG1        0.0645
     24 O          -7.3823    0.0566   -0.0003 O.3     1  LIG1       -0.4792
     25 C          -8.8026    0.2229   -0.0004 C.3     1  LIG1        0.0804
     26 H          -9.2743   -0.7375   -0.0005 H       1  LIG1        0.0660
     27 H          -9.0983    0.7653    0.8734 H       1  LIG1        0.0660
     28 H          -9.0982    0.7655   -0.8739 H       1  LIG1        0.0660
     29 N          -5.2095    4.9322   -0.0004 N.pl3   1  LIG1       -0.3563
     30 H          -4.3276    4.9422   -0.4718 H       1  LIG1        0.1424
     31 H          -5.8464    5.5421   -0.4718 H       1  LIG1        0.1424
     32 C          -9.2948    4.2833   -0.0001 C.ar    1  LIG1        0.2246
     33 C          -7.9061    4.5092   -0.0003 C.ar    1  LIG1        0.0655
     34 C          -7.4450    5.8270   -0.0001 C.ar    1  LIG1       -0.0246
     35 C          -8.3780    6.8653    0.0002 C.ar    1  LIG1        0.0519
     36 C          -9.7465    6.5385    0.0002 C.ar    1  LIG1        0.1005
     37 N         -10.2087    5.2730    0.0002 N.ar    1  LIG1       -0.2103
     38 H          -6.3672    6.0425   -0.0012 H       1  LIG1        0.0645
     39 O          -9.7724    3.0742   -0.0002 O.3     1  LIG1       -0.4792
     40 C         -11.2015    3.1256   -0.0003 C.3     1  LIG1        0.0804
     41 H         -11.5942    2.1302   -0.0005 H       1  LIG1        0.0660
     42 H         -11.5399    3.6423    0.8735 H       1  LIG1        0.0660
     43 H         -11.5398    3.6426   -0.8738 H       1  LIG1        0.0660
     44 N          -7.9993    8.1090    0.0002 N.pl3   1  LIG1       -0.3563
     45 H          -7.1212    8.1900   -0.4712 H       1  LIG1        0.1424
     46 H          -8.6833    8.6657   -0.4712 H       1  LIG1        0.1424
     47 C         -12.0191    7.1331    0.0008 C.ar    1  LIG1        0.2240
     48 C         -10.6531    7.4702    0.0005 C.ar    1  LIG1        0.0655
     49 C         -10.2997    8.8208    0.0008 C.ar    1  LIG1       -0.0252
     50 C         -11.3132    9.7806    0.0012 C.ar    1  LIG1        0.0438
     51 C         -12.6510    9.3446    0.0013 C.ar    1  LIG1        0.0520
     52 N         -13.0098    8.0460    0.0012 N.ar    1  LIG1       -0.2189
     53 H          -9.2427    9.1225   -0.0004 H       1  LIG1        0.0645
     54 H         -13.6297   10.2002    0.0018 H       1  LIG1        0.0849
     55 O         -12.3978    5.8895    0.0006 O.3     1  LIG1       -0.4792
     56 C         -13.8263    5.8256    0.0005 C.3     1  LIG1        0.0804
     57 H         -14.1376    4.8018    0.0001 H       1  LIG1        0.0660
     58 H         -14.2053    6.3133    0.8743 H       1  LIG1        0.0660
     59 H         -14.2052    6.3138   -0.8730 H       1  LIG1        0.0660
     60 N         -11.0360   11.0507    0.0014 N.pl3   1  LIG1       -0.3568
     61 H         -10.1672   11.2023   -0.4700 H       1  LIG1        0.1424
     62 H         -11.7626   11.5505   -0.4700 H       1  LIG1        0.1424
@<TRIPOS>BOND
     1    28    25    1
     2    43    40    1
     3    13    10    1
     4    59    56    1
     5    31    29    1
     6    30    29    1
     7    16    14    1
     8    15    14    1
     9    46    44    1
    10    45    44    1
    11    62    60    1
    12    61    60    1
    13    23    19    1
    14    38    34    1
    15     7     3    1
    16    26    25    1
    17    41    40    1
    18    53    49    1
    19    18     5    1
    20    18    17   ar
    21    18    19   ar
    22    21    22   ar
    23    21    33    1
    24    21    20   ar
    25    29    20    1
    26    25    24    1
    27    25    27    1
    28    14     4    1
    29     5     6   ar
    30     5     4   ar
    31    17    24    1
    32    17    22   ar
    33    19    20   ar
    34    33    32   ar
    35    33    34   ar
    36    40    39    1
    37    40    42    1
    38    39    32    1
    39     6     1   ar
    40     4     3   ar
    41    32    37   ar
    42    34    35   ar
    43    11    10    1
    44     2     1   ar
    45     2     3   ar
    46     2     8    1
    47     1     9    1
    48    57    56    1
    49    37    36   ar
    50    36    35   ar
    51    36    48    1
    52    10     9    1
    53    10    12    1
    54    35    44    1
    55    56    55    1
    56    56    58    1
    57    48    47   ar
    58    48    49   ar
    59    55    47    1
    60    47    52   ar
    61    49    50   ar
    62    52    51   ar
    63    50    51   ar
    64    50    60    1
    65    51    54    1
