@<TRIPOS>MOLECULE
mol_data/noopt/geoms/mol2/6li13ad(250)6fd(120)6lh(230).out
 53 56 0 0 0
SMALL
GASTEIGER

@<TRIPOS>ATOM
      1 C          -4.5775   -2.0270    0.0001 C.ar    1  LIG1        0.2150
      2 C          -3.1706   -2.0270    0.0001 C.ar    1  LIG1        0.0003
      3 C          -2.5039   -0.8004    0.0001 C.ar    1  LIG1       -0.0517
      4 C          -3.2580    0.3743   -0.0001 C.ar    1  LIG1       -0.0228
      5 C          -4.6612    0.2715   -0.0003 C.ar    1  LIG1        0.0938
      6 N          -5.3207   -0.9034   -0.0001 N.ar    1  LIG1       -0.2112
      7 H          -1.4054   -0.7607   -0.0009 H       1  LIG1        0.0622
      8 H          -2.5135   -3.1487    0.0004 H       1  LIG1        0.0671
      9 O          -5.2431   -3.1437    0.0002 O.3     1  LIG1       -0.4796
     10 C          -6.6454   -2.8635    0.0002 C.3     1  LIG1        0.0804
     11 H          -7.1928   -3.7829    0.0001 H       1  LIG1        0.0660
     12 H          -6.8964   -2.2991    0.8739 H       1  LIG1        0.0660
     13 H          -6.8963   -2.2990   -0.8734 H       1  LIG1        0.0660
     14 C          -2.6845    1.5413   -0.0003 C.3     1  LIG1       -0.0376
     15 H          -3.3112    2.2468    0.5041 H       1  LIG1        0.0278
     16 H          -2.5273    1.8613   -1.0092 H       1  LIG1        0.0278
     17 H          -1.7430    1.4761    0.5040 H       1  LIG1        0.0278
     18 C          -5.4065    1.3366   -0.0004 C.ar    1  LIG1        0.0670
     19 C          -6.2243    1.8407   -0.9622 C.ar    1  LIG1       -0.0169
     20 C          -6.8095    3.0393   -0.4410 C.ar    1  LIG1        0.0778
     21 C          -6.3248    3.2140    0.8171 C.ar    1  LIG1        0.0697
     22 N          -5.4652    2.1741    1.0906 N.ar    1  LIG1       -0.3518
     23 H          -4.9665    2.0476    1.9412 H       1  LIG1        0.1660
     24 H          -6.4330    1.3272   -2.1381 H       1  LIG1        0.0652
     25 N          -8.3909    4.5064   -1.5953 N.1     1  LIG1       -0.1908
     26 C          -7.6497    3.8188   -1.0543 C.1     1  LIG1        0.1013
     27 C          -6.2669    5.4927    1.3851 C.ar    1  LIG1        0.2223
     28 C          -6.5581    4.1501    1.6885 C.ar    1  LIG1        0.0621
     29 C          -7.1002    3.8518    2.9399 C.ar    1  LIG1       -0.0280
     30 C          -7.3310    4.8950    3.8383 C.ar    1  LIG1        0.0787
     31 C          -7.0065    6.2058    3.4429 C.ar    1  LIG1        0.0973
     32 N          -6.4831    6.5114    2.2396 N.ar    1  LIG1       -0.2110
     33 H          -7.3398    2.8143    3.2130 H       1  LIG1        0.0639
     34 O          -5.7613    5.8202    0.2331 O.3     1  LIG1       -0.4919
     35 H          -6.1286    6.6604   -0.0508 H       1  LIG1        0.2937
     36 N          -8.2775    4.4701    6.0540 N.1     1  LIG1       -0.1908
     37 C          -7.8339    4.6693    5.0156 C.1     1  LIG1        0.1013
     38 C          -6.4342    7.3478    5.4144 C.ar    1  LIG1        0.2240
     39 C          -7.2030    7.2104    4.2441 C.ar    1  LIG1        0.0649
     40 C          -8.1747    8.1740    3.9679 C.ar    1  LIG1       -0.0252
     41 C          -8.3445    9.2327    4.8618 C.ar    1  LIG1        0.0438
     42 C          -7.5269    9.2834    6.0057 C.ar    1  LIG1        0.0520
     43 N          -6.5846    8.3625    6.2876 N.ar    1  LIG1       -0.2189
     44 H          -8.7954    8.0996    3.0637 H       1  LIG1        0.0645
     45 H          -7.6471   10.2493    6.8673 H       1  LIG1        0.0849
     46 O          -5.5175    6.4763    5.7146 O.3     1  LIG1       -0.4792
     47 C          -6.1097    5.1793    5.8248 C.3     1  LIG1        0.0804
     48 H          -5.3548    4.4623    6.0717 H       1  LIG1        0.0660
     49 H          -6.8548    5.1915    6.5926 H       1  LIG1        0.0660
     50 H          -6.5626    4.9136    4.8925 H       1  LIG1        0.0660
     51 N          -9.2357   10.1551    4.6496 N.pl3   1  LIG1       -0.3568
     52 H          -8.8235   10.9036    4.1302 H       1  LIG1        0.1424
     53 H          -9.9979    9.7690    4.1301 H       1  LIG1        0.1424
@<TRIPOS>BOND
     1    24    19    1
     2    25    26    3
     3    26    20    1
     4    16    14    1
     5    19    20   ar
     6    19    18   ar
     7    13    10    1
     8    20    21   ar
     9    35    34    1
    10     7     3    1
    11    18     5    1
    12    18    22   ar
    13     5     6   ar
    14     5     4   ar
    15    14     4    1
    16    14    17    1
    17    14    15    1
    18     6     1   ar
    19     4     3   ar
    20    11    10    1
    21     1     2   ar
    22     1     9    1
    23     3     2   ar
    24     2     8    1
    25    10     9    1
    26    10    12    1
    27    34    27    1
    28    21    22   ar
    29    21    28    1
    30    22    23    1
    31    27    28   ar
    32    27    32   ar
    33    28    29   ar
    34    32    31   ar
    35    29    33    1
    36    29    30   ar
    37    44    40    1
    38    31    30   ar
    39    31    39    1
    40    30    37    1
    41    40    39   ar
    42    40    41   ar
    43    53    51    1
    44    52    51    1
    45    39    38   ar
    46    51    41    1
    47    41    42   ar
    48    50    47    1
    49    37    36    3
    50    38    46    1
    51    38    43   ar
    52    46    47    1
    53    47    48    1
    54    47    49    1
    55    42    43   ar
    56    42    45    1
