@<TRIPOS>MOLECULE
mol_data/noopt/geoms/mol2/6li12ai-13fi12ed-.out
 50 53 0 0 0
SMALL
GASTEIGER

@<TRIPOS>ATOM
      1 C          -4.5775   -2.0270    0.0001 C.ar    1  LIG1        0.2151
      2 C          -3.1706   -2.0270    0.0001 C.ar    1  LIG1        0.0003
      3 C          -2.5039   -0.8004    0.0001 C.ar    1  LIG1       -0.0517
      4 C          -3.2580    0.3743   -0.0001 C.ar    1  LIG1       -0.0212
      5 C          -4.6612    0.2715   -0.0003 C.ar    1  LIG1        0.1127
      6 N          -5.3207   -0.9034   -0.0001 N.ar    1  LIG1       -0.2095
      7 H          -1.4054   -0.7607   -0.0009 H       1  LIG1        0.0622
      8 H          -2.5135   -3.1487    0.0004 H       1  LIG1        0.0671
      9 O          -5.2431   -3.1437    0.0002 O.3     1  LIG1       -0.4796
     10 C          -6.6454   -2.8635    0.0002 C.3     1  LIG1        0.0804
     11 H          -7.1928   -3.7829    0.0001 H       1  LIG1        0.0660
     12 H          -6.8964   -2.2991    0.8739 H       1  LIG1        0.0660
     13 H          -6.8963   -2.2990   -0.8734 H       1  LIG1        0.0660
     14 C          -2.6845    1.5413   -0.0003 C.3     1  LIG1       -0.0376
     15 H          -3.3112    2.2468    0.5041 H       1  LIG1        0.0278
     16 H          -2.5273    1.8613   -1.0092 H       1  LIG1        0.0278
     17 H          -1.7430    1.4761    0.5040 H       1  LIG1        0.0278
     18 C          -5.4065    1.3366   -0.0004 C.ar    1  LIG1        0.1545
     19 C          -5.1777    2.6969    0.0143 C.ar    1  LIG1       -0.0107
     20 C          -6.4770    3.3362    0.0035 C.ar    1  LIG1       -0.0025
     21 C          -7.4140    2.3237   -0.0171 C.ar    1  LIG1        0.1583
     22 O          -6.7784    1.0815   -0.0201 O.2     1  LIG1       -0.4514
     23 H          -4.0320    3.3109    0.0342 H       1  LIG1        0.0659
     24 C          -6.6906    4.6188    0.0120 C.3     1  LIG1       -0.0360
     25 H          -7.6104    4.8239    0.5188 H       1  LIG1        0.0279
     26 H          -6.7503    4.9772   -0.9945 H       1  LIG1        0.0279
     27 H          -5.8868    5.1109    0.5187 H       1  LIG1        0.0279
     28 C          -8.7125    2.2634   -0.0340 C.ar    1  LIG1        0.1251
     29 C          -9.6415    3.2558   -0.0292 C.ar    1  LIG1        0.1486
     30 C         -10.9314    2.6342   -0.0540 C.ar    1  LIG1        0.0200
     31 C         -10.7338    1.2894   -0.0746 C.ar    1  LIG1        0.0904
     32 N          -9.3767    1.0580   -0.0620 N.ar    1  LIG1       -0.3462
     33 H          -8.9451    0.1627   -0.0722 H       1  LIG1        0.1662
     34 O          -9.3997    4.5329   -0.0049 O.3     1  LIG1       -0.5043
     35 H         -10.2293    5.0160    0.0011 H       1  LIG1        0.2922
     36 C         -12.0815    3.2408   -0.0568 C.3     1  LIG1       -0.0341
     37 H         -12.8055    2.6349    0.4469 H       1  LIG1        0.0279
     38 H         -12.3951    3.4061   -1.0664 H       1  LIG1        0.0279
     39 H         -11.9904    4.1805    0.4468 H       1  LIG1        0.0279
     40 C         -11.5898    0.3114   -0.1008 C.ar    1  LIG1        0.1678
     41 C         -12.9654    0.2084   -0.1058 C.ar    1  LIG1        0.0892
     42 C         -13.2754   -1.2057   -0.1420 C.ar    1  LIG1        0.1054
     43 C         -12.0680   -1.8733   -0.1568 C.ar    1  LIG1        0.1112
     44 O         -11.0138   -0.9595   -0.1320 O.2     1  LIG1       -0.4589
     45 H         -11.6989   -3.1194   -0.1876 H       1  LIG1        0.1043
     46 C         -13.8357    1.1738   -0.0828 C.1     1  LIG1       -0.0645
     47 C         -14.6398    2.0659   -0.0617 C.1     1  LIG1       -0.1138
     48 H         -15.3561    2.8605   -0.0428 H       1  LIG1        0.1232
     49 N         -15.5226   -2.1726   -0.1703 N.1     1  LIG1       -0.1907
     50 C         -14.4694   -1.7194   -0.1570 C.1     1  LIG1        0.1036
@<TRIPOS>BOND
     1    38    36    1
     2    16    14    1
     3    26    24    1
     4    13    10    1
     5    45    43    1
     6    49    50    3
     7    50    42    1
     8    43    42   ar
     9    43    44   ar
    10    42    41   ar
    11    44    40   ar
    12    41    40   ar
    13    41    46    1
    14    40    31    1
    15    46    47    3
    16    31    32   ar
    17    31    30   ar
    18    33    32    1
    19    32    28   ar
    20    47    48    1
    21    36    30    1
    22    36    39    1
    23    36    37    1
    24    30    29   ar
    25    28    29   ar
    26    28    21    1
    27    29    34    1
    28    22    21   ar
    29    22    18   ar
    30    21    20   ar
    31    34    35    1
    32     7     3    1
    33    18     5    1
    34    18    19   ar
    35     5     4   ar
    36     5     6   ar
    37    14     4    1
    38    14    17    1
    39    14    15    1
    40     4     3   ar
    41     6     1   ar
    42    11    10    1
    43     1     2   ar
    44     1     9    1
    45     3     2   ar
    46     2     8    1
    47    10     9    1
    48    10    12    1
    49    20    24    1
    50    20    19   ar
    51    24    27    1
    52    24    25    1
    53    19    23    1
