@<TRIPOS>MOLECULE
mol_data/noopt/geoms/mol2/6li4ff-13fl-13hh-6ff-6ia12de13hf-.out
 99 105 0 0 0
SMALL
GASTEIGER

@<TRIPOS>ATOM
      1 C          -4.5775   -2.0270    0.0001 C.ar    1  LIG1        0.2150
      2 C          -3.1706   -2.0270    0.0001 C.ar    1  LIG1        0.0003
      3 C          -2.5039   -0.8004    0.0001 C.ar    1  LIG1       -0.0515
      4 C          -3.2580    0.3743   -0.0001 C.ar    1  LIG1       -0.0208
      5 C          -4.6612    0.2715   -0.0003 C.ar    1  LIG1        0.0787
      6 N          -5.3207   -0.9034   -0.0001 N.ar    1  LIG1       -0.2126
      7 H          -1.4054   -0.7607   -0.0009 H       1  LIG1        0.0623
      8 H          -2.5135   -3.1487    0.0004 H       1  LIG1        0.0671
      9 O          -5.2431   -3.1437    0.0002 O.3     1  LIG1       -0.4796
     10 C          -6.6454   -2.8635    0.0002 C.3     1  LIG1        0.0804
     11 H          -7.1928   -3.7829    0.0001 H       1  LIG1        0.0660
     12 H          -6.8964   -2.2991    0.8739 H       1  LIG1        0.0660
     13 H          -6.8963   -2.2990   -0.8734 H       1  LIG1        0.0660
     14 C          -2.6845    1.5413   -0.0003 C.3     1  LIG1       -0.0216
     15 H          -3.3112    2.2468    0.5041 H       0  HOH0        0.2052
     16 H          -2.5273    1.8613   -1.0092 H       1  LIG1        0.0317
     17 H          -1.7430    1.4761    0.5040 H       1  LIG1        0.0317
     18 C          -4.8078    2.6129    0.0216 C.ar    1  LIG1       -0.0072
     19 C          -5.6586    3.7351    0.0221 C.ar    1  LIG1       -0.0406
     20 C          -5.4065    1.3366   -0.0004 C.ar    1  LIG1        0.0119
     21 C          -7.0444    3.5952    0.0010 C.ar    1  LIG1        0.0440
     22 H          -5.2175    4.7293    0.0391 H       1  LIG1        0.0631
     23 C          -6.7900    1.1963   -0.0215 C.ar    1  LIG1       -0.0098
     24 C          -7.6183    2.3234   -0.0211 C.ar    1  LIG1        0.1267
     25 H          -7.2275    0.2014   -0.0382 H       1  LIG1        0.0661
     26 O          -3.5225    2.8070    0.0417 O.3     2  HOH2       -0.4105
     27 H          -3.3409    3.7497    0.0466 H       0  HOH0        0.2052
     28 O          -8.9109    2.1862   -0.0407 O.3     1  LIG1       -0.5061
     29 H          -9.1339    1.2524   -0.0455 H       1  LIG1        0.2922
     30 C          -7.8001    4.6531    0.0019 C.ar    1  LIG1        0.0963
     31 C          -7.4710    5.9719    0.0189 C.ar    1  LIG1        0.1851
     32 C          -8.6934    6.7178    0.0121 C.ar    1  LIG1        0.1888
     33 C          -9.7157    5.8219   -0.0103 C.ar    1  LIG1        0.1112
     34 N          -9.1732    4.5567   -0.0162 N.ar    1  LIG1       -0.3470
     35 H          -9.6908    3.7082   -0.0317 H       1  LIG1        0.1662
     36 O          -6.2671    6.4620    0.0390 O.3     1  LIG1       -0.5019
     37 H          -6.3116    7.4210    0.0440 H       1  LIG1        0.2924
     38 O          -8.8085    8.0127    0.0247 O.3     1  LIG1       -0.4895
     39 C          -7.5080    8.6073    0.0292 C.3     1  LIG1        0.0791
     40 H          -7.6031    9.6731    0.0394 H       1  LIG1        0.0660
     41 H          -6.9731    8.2887    0.8995 H       1  LIG1        0.0660
     42 H          -6.9746    8.3052   -0.8477 H       1  LIG1        0.0660
     43 C         -11.0020    6.0099   -0.0242 C.ar    1  LIG1        0.0898
     44 C         -11.7250    7.1611   -0.0339 C.ar    1  LIG1        0.0733
     45 C         -13.1097    6.7963   -0.0466 C.ar    1  LIG1        0.0720
     46 C         -13.1719    5.4383   -0.0458 C.ar    1  LIG1        0.0750
     47 N         -11.8838    4.9529   -0.0316 N.ar    1  LIG1       -0.3498
     48 H         -11.6306    3.9916   -0.0280 H       1  LIG1        0.1661
     49 N         -11.2442    8.3690   -0.0306 N.pl3   1  LIG1       -0.3548
     50 H         -10.3619    8.3778   -0.5012 H       1  LIG1        0.1424
     51 H         -11.8791    8.9817   -0.5012 H       1  LIG1        0.1424
     52 N         -14.1230    7.6106   -0.0574 N.pl3   1  LIG1       -0.3549
     53 H         -13.8683    8.4534   -0.5315 H       1  LIG1        0.1424
     54 H         -14.8912    7.1805   -0.5316 H       1  LIG1        0.1424
     55 C         -14.0157    3.2463   -0.0808 C.ar    1  LIG1        0.2225
     56 C         -14.1986    4.6410   -0.0549 C.ar    1  LIG1        0.0650
     57 C         -15.5015    5.1423   -0.0389 C.ar    1  LIG1       -0.0038
     58 C         -16.5682    4.2419   -0.0494 C.ar    1  LIG1        0.1436
     59 C         -16.2838    2.8642   -0.0758 C.ar    1  LIG1        0.1178
     60 N         -15.0331    2.3633   -0.0913 N.ar    1  LIG1       -0.2087
     61 H         -15.6837    6.2261   -0.0195 H       1  LIG1        0.0663
     62 O         -12.8219    2.7317   -0.0963 O.3     1  LIG1       -0.4919
     63 H         -12.1695    3.4359   -0.1002 H       1  LIG1        0.2937
     64 O         -17.7995    4.6585   -0.0355 O.3     1  LIG1       -0.5046
     65 H         -18.3931    3.9040   -0.0321 H       1  LIG1        0.2922
     66 C         -16.9482    0.6111   -0.0921 C.ar    1  LIG1        0.0483
     67 C         -17.2429    1.9868   -0.0864 C.ar    1  LIG1        0.0251
     68 C         -18.5819    2.3818   -0.0922 C.ar    1  LIG1       -0.0486
     69 C         -19.5726    1.3984   -0.1035 C.ar    1  LIG1       -0.0320
     70 C         -19.1781    0.0478   -0.1086 C.ar    1  LIG1        0.1076
     71 N         -17.8912   -0.3509   -0.1030 N.ar    1  LIG1       -0.2481
     72 H         -18.8508    3.4476   -0.0890 H       1  LIG1        0.0625
     73 C         -15.7166    0.1941   -0.0870 C.3     1  LIG1       -0.0217
     74 H         -15.1004    0.9078    0.4188 H       1  LIG1        0.0293
     75 H         -15.3750    0.0785   -1.0944 H       1  LIG1        0.0293
     76 H         -15.6609   -0.7472    0.4187 H       1  LIG1        0.0293
     77 H         -20.8335    1.7147   -0.1093 H       1  LIG1        0.0640
     78 C         -20.0635   -0.9040   -0.1190 C.ar    1  LIG1        0.1724
     79 C         -21.4416   -0.9652   -0.1268 C.ar    1  LIG1        0.1149
     80 C         -21.7944   -2.3695   -0.1370 C.ar    1  LIG1        0.0899
     81 C         -20.6080   -3.0737   -0.1348 C.ar    1  LIG1        0.1703
     82 O         -19.5265   -2.1922   -0.1238 O.2     1  LIG1       -0.4492
     83 N         -23.0233    0.9014   -0.1243 N.1     1  LIG1       -0.1907
     84 C         -22.2821    0.0266   -0.1255 C.1     1  LIG1        0.1043
     85 C         -23.0036   -2.8469   -0.1464 C.1     1  LIG1       -0.0645
     86 C         -24.1209   -3.2879   -0.1550 C.1     1  LIG1       -0.1138
     87 H         -25.1161   -3.6808   -0.1628 H       1  LIG1        0.1232
     88 C         -20.2770   -4.3309   -0.1403 C.ar    1  LIG1        0.1080
     89 C         -21.0528   -5.4472   -0.1444 C.ar    1  LIG1        0.0953
     90 C         -20.1747   -6.5783   -0.1488 C.ar    1  LIG1        0.1554
     91 C         -18.9009   -6.1035   -0.1488 C.ar    1  LIG1        0.0461
     92 N         -18.9589   -4.7281   -0.1432 N.ar    1  LIG1       -0.3537
     93 H         -18.1737   -4.1186   -0.1421 H       1  LIG1        0.1656
     94 H         -17.7650   -6.7358   -0.1522 H       1  LIG1        0.0845
     95 N         -22.3525   -5.4781   -0.1431 N.pl3   1  LIG1       -0.3534
     96 H         -22.7056   -4.6697   -0.6141 H       1  LIG1        0.1425
     97 H         -22.6668   -6.3022   -0.6142 H       1  LIG1        0.1425
     98 O         -20.5268   -7.8297   -0.1524 O.3     1  LIG1       -0.5035
     99 H         -19.7425   -8.3833   -0.1533 H       1  LIG1        0.2923
@<TRIPOS>BOND
     1    75    73    1
     2    16    14    1
     3    13    10    1
     4    42    39    1
     5    97    95    1
     6    96    95    1
     7    54    52    1
     8    53    52    1
     9    51    49    1
    10    50    49    1
    11    87    86    1
    12    86    85    3
    13    99    98    1
    14    98    90    1
    15    94    91    1
    16    91    90   ar
    17    91    92   ar
    18    90    89   ar
    19    85    80    1
    20    89    95    1
    21    89    88   ar
    22    92    93    1
    23    92    88   ar
    24    88    81    1
    25    80    81   ar
    26    80    79   ar
    27    81    82   ar
    28    79    84    1
    29    79    78   ar
    30    84    83    3
    31    82    78   ar
    32    78    70    1
    33    77    69    1
    34    70    69   ar
    35    70    71   ar
    36    69    68   ar
    37    71    66   ar
    38    63    62    1
    39    62    55    1
    40    68    72    1
    41    68    67   ar
    42    66    73    1
    43    66    67   ar
    44    60    55   ar
    45    60    59   ar
    46    73    76    1
    47    73    74    1
    48    67    59    1
    49    55    56   ar
    50    59    58   ar
    51    52    45    1
    52    56    46    1
    53    56    57   ar
    54    58    57   ar
    55    58    64    1
    56    45    46   ar
    57    45    44   ar
    58    46    47   ar
    59    29    28    1
    60    28    24    1
    61    57    61    1
    62    25    23    1
    63    64    65    1
    64    44    49    1
    65    44    43   ar
    66    35    34    1
    67    47    48    1
    68    47    43   ar
    69    43    33    1
    70    23    24   ar
    71    23    20   ar
    72    24    21   ar
    73    34    33   ar
    74    34    30   ar
    75    33    32   ar
    76     7     3    1
    77    20     5    1
    78    20    18   ar
    79     5     6   ar
    80     5     4   ar
    81    14     4    1
    82    14    17    1
    83     6     1   ar
    84     4     3   ar
    85    11    10    1
    86     1     2   ar
    87     1     9    1
    88     2     3   ar
    89     2     8    1
    90    10     9    1
    91    10    12    1
    92    21    30    1
    93    21    19   ar
    94    30    31   ar
    95    32    31   ar
    96    32    38    1
    97    31    36    1
    98    18    19   ar
    99    19    22    1
   100    38    39    1
   101    39    40    1
   102    39    41    1
   103    36    37    1
   104    26    27    1
   105    26    15    1
