@<TRIPOS>MOLECULE
mol_data/noopt/geoms/mol2/6li6li6li.out
 50 52 0 0 0
SMALL
GASTEIGER

@<TRIPOS>ATOM
      1 C          -4.5775   -2.0270    0.0001 C.ar    1  LIG1        0.2150
      2 C          -3.1706   -2.0270    0.0001 C.ar    1  LIG1        0.0003
      3 C          -2.5039   -0.8004    0.0001 C.ar    1  LIG1       -0.0518
      4 C          -3.2580    0.3743   -0.0001 C.ar    1  LIG1       -0.0241
      5 C          -4.6612    0.2715   -0.0003 C.ar    1  LIG1        0.0828
      6 N          -5.3207   -0.9034   -0.0001 N.ar    1  LIG1       -0.2125
      7 H          -1.4054   -0.7607   -0.0009 H       1  LIG1        0.0622
      8 H          -2.5135   -3.1487    0.0004 H       1  LIG1        0.0671
      9 O          -5.2431   -3.1437    0.0002 O.3     1  LIG1       -0.4796
     10 C          -6.6454   -2.8635    0.0002 C.3     1  LIG1        0.0804
     11 H          -7.1928   -3.7829    0.0001 H       1  LIG1        0.0660
     12 H          -6.8964   -2.2991    0.8739 H       1  LIG1        0.0660
     13 H          -6.8963   -2.2990   -0.8734 H       1  LIG1        0.0660
     14 C          -2.6845    1.5413   -0.0003 C.3     1  LIG1       -0.0377
     15 H          -3.3112    2.2468    0.5041 H       1  LIG1        0.0278
     16 H          -2.5273    1.8613   -1.0092 H       1  LIG1        0.0278
     17 H          -1.7430    1.4761    0.5040 H       1  LIG1        0.0278
     18 C          -6.8088    1.2233   -0.0003 C.ar    1  LIG1        0.2245
     19 C          -5.4065    1.3366   -0.0004 C.ar    1  LIG1        0.0625
     20 C          -4.8408    2.6129   -0.0003 C.ar    1  LIG1       -0.0425
     21 C          -5.6871    3.7231   -0.0003 C.ar    1  LIG1       -0.0234
     22 C          -7.0774    3.5076   -0.0004 C.ar    1  LIG1        0.0828
     23 N          -7.6401    2.2834   -0.0003 N.ar    1  LIG1       -0.2119
     24 H          -3.7491    2.7410   -0.0014 H       1  LIG1        0.0629
     25 O          -7.3823    0.0566   -0.0003 O.3     1  LIG1       -0.4792
     26 C          -8.8026    0.2229   -0.0004 C.3     1  LIG1        0.0804
     27 H          -9.2743   -0.7375   -0.0005 H       1  LIG1        0.0660
     28 H          -9.0983    0.7653    0.8734 H       1  LIG1        0.0660
     29 H          -9.0982    0.7655   -0.8739 H       1  LIG1        0.0660
     30 C          -5.2094    4.9325   -0.0004 C.3     1  LIG1       -0.0377
     31 H          -5.8909    5.5852    0.5040 H       1  LIG1        0.0278
     32 H          -5.0784    5.2642   -1.0092 H       1  LIG1        0.0278
     33 H          -4.2658    4.9433    0.5040 H       1  LIG1        0.0278
     34 C          -9.2948    4.2833   -0.0001 C.ar    1  LIG1        0.2239
     35 C          -7.9061    4.5092   -0.0003 C.ar    1  LIG1        0.0624
     36 C          -7.4450    5.8270   -0.0001 C.ar    1  LIG1       -0.0431
     37 C          -8.3780    6.8653    0.0002 C.ar    1  LIG1       -0.0315
     38 C          -9.7465    6.5385    0.0002 C.ar    1  LIG1        0.0343
     39 N         -10.2087    5.2730    0.0002 N.ar    1  LIG1       -0.2205
     40 H          -6.3672    6.0425   -0.0012 H       1  LIG1        0.0629
     41 H         -10.6531    7.4701    0.0005 H       1  LIG1        0.0833
     42 O          -9.7724    3.0742   -0.0002 O.3     1  LIG1       -0.4792
     43 C         -11.2015    3.1256   -0.0003 C.3     1  LIG1        0.0804
     44 H         -11.5942    2.1302   -0.0005 H       1  LIG1        0.0660
     45 H         -11.5399    3.6423    0.8735 H       1  LIG1        0.0660
     46 H         -11.5398    3.6426   -0.8738 H       1  LIG1        0.0660
     47 C          -7.9993    8.1093    0.0002 C.3     1  LIG1       -0.0383
     48 H          -8.7311    8.7049    0.5046 H       1  LIG1        0.0278
     49 H          -7.8954    8.4505   -1.0087 H       1  LIG1        0.0278
     50 H          -7.0596    8.1960    0.5046 H       1  LIG1        0.0278
@<TRIPOS>BOND
     1    32    30    1
     2    16    14    1
     3    49    47    1
     4    29    26    1
     5    46    43    1
     6    13    10    1
     7    24    20    1
     8    40    36    1
     9     7     3    1
    10    27    26    1
    11    44    43    1
    12    19     5    1
    13    19    18   ar
    14    19    20   ar
    15    22    23   ar
    16    22    35    1
    17    22    21   ar
    18    30    21    1
    19    30    33    1
    20    30    31    1
    21    26    25    1
    22    26    28    1
    23    14     4    1
    24    14    17    1
    25    14    15    1
    26     5     4   ar
    27     5     6   ar
    28    18    25    1
    29    18    23   ar
    30    20    21   ar
    31    35    34   ar
    32    35    36   ar
    33    43    42    1
    34    43    45    1
    35    42    34    1
    36     4     3   ar
    37     6     1   ar
    38    34    39   ar
    39    36    37   ar
    40    11    10    1
    41     1     2   ar
    42     1     9    1
    43     2     3   ar
    44     2     8    1
    45    39    38   ar
    46    38    37   ar
    47    38    41    1
    48    10     9    1
    49    10    12    1
    50    37    47    1
    51    47    50    1
    52    47    48    1
