@<TRIPOS>MOLECULE
mol_data/noopt/geoms/mol2/6li6li.out
 34 35 0 0 0
SMALL
GASTEIGER

@<TRIPOS>ATOM
      1 C          -4.5775   -2.0270    0.0001 C.ar    1  LIG1        0.2150
      2 C          -3.1706   -2.0270    0.0001 C.ar    1  LIG1        0.0003
      3 C          -2.5039   -0.8004    0.0001 C.ar    1  LIG1       -0.0518
      4 C          -3.2580    0.3743   -0.0001 C.ar    1  LIG1       -0.0241
      5 C          -4.6612    0.2715   -0.0003 C.ar    1  LIG1        0.0828
      6 N          -5.3207   -0.9034   -0.0001 N.ar    1  LIG1       -0.2125
      7 H          -1.4054   -0.7607   -0.0009 H       1  LIG1        0.0622
      8 H          -2.5135   -3.1487    0.0004 H       1  LIG1        0.0671
      9 O          -5.2431   -3.1437    0.0002 O.3     1  LIG1       -0.4796
     10 C          -6.6454   -2.8635    0.0002 C.3     1  LIG1        0.0804
     11 H          -7.1928   -3.7829    0.0001 H       1  LIG1        0.0660
     12 H          -6.8964   -2.2991    0.8739 H       1  LIG1        0.0660
     13 H          -6.8963   -2.2990   -0.8734 H       1  LIG1        0.0660
     14 C          -2.6845    1.5413   -0.0003 C.3     1  LIG1       -0.0377
     15 H          -3.3112    2.2468    0.5041 H       1  LIG1        0.0278
     16 H          -2.5273    1.8613   -1.0092 H       1  LIG1        0.0278
     17 H          -1.7430    1.4761    0.5040 H       1  LIG1        0.0278
     18 C          -6.8088    1.2233   -0.0003 C.ar    1  LIG1        0.2239
     19 C          -5.4065    1.3366   -0.0004 C.ar    1  LIG1        0.0624
     20 C          -4.8408    2.6129   -0.0003 C.ar    1  LIG1       -0.0431
     21 C          -5.6871    3.7231   -0.0003 C.ar    1  LIG1       -0.0315
     22 C          -7.0774    3.5076   -0.0004 C.ar    1  LIG1        0.0343
     23 N          -7.6401    2.2834   -0.0003 N.ar    1  LIG1       -0.2205
     24 H          -3.7491    2.7410   -0.0014 H       1  LIG1        0.0629
     25 H          -7.9061    4.5092   -0.0003 H       1  LIG1        0.0833
     26 O          -7.3823    0.0566   -0.0003 O.3     1  LIG1       -0.4792
     27 C          -8.8026    0.2229   -0.0004 C.3     1  LIG1        0.0804
     28 H          -9.2743   -0.7375   -0.0005 H       1  LIG1        0.0660
     29 H          -9.0983    0.7653    0.8734 H       1  LIG1        0.0660
     30 H          -9.0982    0.7655   -0.8739 H       1  LIG1        0.0660
     31 C          -5.2094    4.9325   -0.0004 C.3     1  LIG1       -0.0383
     32 H          -5.8909    5.5852    0.5040 H       1  LIG1        0.0278
     33 H          -5.0784    5.2642   -1.0092 H       1  LIG1        0.0278
     34 H          -4.2658    4.9433    0.5040 H       1  LIG1        0.0278
@<TRIPOS>BOND
     1    33    31    1
     2    16    14    1
     3    30    27    1
     4    13    10    1
     5    24    20    1
     6     7     3    1
     7    28    27    1
     8    19     5    1
     9    19    18   ar
    10    19    20   ar
    11    22    23   ar
    12    22    25    1
    13    22    21   ar
    14    31    21    1
    15    31    34    1
    16    31    32    1
    17    27    26    1
    18    27    29    1
    19     5     6   ar
    20     5     4   ar
    21    14     4    1
    22    14    17    1
    23    14    15    1
    24    18    26    1
    25    18    23   ar
    26    20    21   ar
    27     6     1   ar
    28     4     3   ar
    29    11    10    1
    30     1     2   ar
    31     1     9    1
    32     3     2   ar
    33     2     8    1
    34    10     9    1
    35    10    12    1
