@<TRIPOS>MOLECULE
mol_data/noopt/geoms/mol2/6li6li6li6li.out
 66 69 0 0 0
SMALL
GASTEIGER

@<TRIPOS>ATOM
      1 C          -4.5775   -2.0270    0.0001 C.ar    1  LIG1        0.2150
      2 C          -3.1706   -2.0270    0.0001 C.ar    1  LIG1        0.0003
      3 C          -2.5039   -0.8004    0.0001 C.ar    1  LIG1       -0.0518
      4 C          -3.2580    0.3743   -0.0001 C.ar    1  LIG1       -0.0241
      5 C          -4.6612    0.2715   -0.0003 C.ar    1  LIG1        0.0828
      6 N          -5.3207   -0.9034   -0.0001 N.ar    1  LIG1       -0.2125
      7 H          -1.4054   -0.7607   -0.0009 H       1  LIG1        0.0622
      8 H          -2.5135   -3.1487    0.0004 H       1  LIG1        0.0671
      9 O          -5.2431   -3.1437    0.0002 O.3     1  LIG1       -0.4796
     10 C          -6.6454   -2.8635    0.0002 C.3     1  LIG1        0.0804
     11 H          -7.1928   -3.7829    0.0001 H       1  LIG1        0.0660
     12 H          -6.8964   -2.2991    0.8739 H       1  LIG1        0.0660
     13 H          -6.8963   -2.2990   -0.8734 H       1  LIG1        0.0660
     14 C          -2.6845    1.5413   -0.0003 C.3     1  LIG1       -0.0377
     15 H          -3.3112    2.2468    0.5041 H       1  LIG1        0.0278
     16 H          -2.5273    1.8613   -1.0092 H       1  LIG1        0.0278
     17 H          -1.7430    1.4761    0.5040 H       1  LIG1        0.0278
     18 C          -6.8088    1.2233   -0.0003 C.ar    1  LIG1        0.2245
     19 C          -5.4065    1.3366   -0.0004 C.ar    1  LIG1        0.0625
     20 C          -4.8408    2.6129   -0.0003 C.ar    1  LIG1       -0.0425
     21 C          -5.6871    3.7231   -0.0003 C.ar    1  LIG1       -0.0234
     22 C          -7.0774    3.5076   -0.0004 C.ar    1  LIG1        0.0828
     23 N          -7.6401    2.2834   -0.0003 N.ar    1  LIG1       -0.2119
     24 H          -3.7491    2.7410   -0.0014 H       1  LIG1        0.0629
     25 O          -7.3823    0.0566   -0.0003 O.3     1  LIG1       -0.4792
     26 C          -8.8026    0.2229   -0.0004 C.3     1  LIG1        0.0804
     27 H          -9.2743   -0.7375   -0.0005 H       1  LIG1        0.0660
     28 H          -9.0983    0.7653    0.8734 H       1  LIG1        0.0660
     29 H          -9.0982    0.7655   -0.8739 H       1  LIG1        0.0660
     30 C          -5.2094    4.9325   -0.0004 C.3     1  LIG1       -0.0377
     31 H          -5.8909    5.5852    0.5040 H       1  LIG1        0.0278
     32 H          -5.0784    5.2642   -1.0092 H       1  LIG1        0.0278
     33 H          -4.2658    4.9433    0.5040 H       1  LIG1        0.0278
     34 C          -9.2948    4.2833   -0.0001 C.ar    1  LIG1        0.2245
     35 C          -7.9061    4.5092   -0.0003 C.ar    1  LIG1        0.0625
     36 C          -7.4450    5.8270   -0.0001 C.ar    1  LIG1       -0.0425
     37 C          -8.3780    6.8653    0.0002 C.ar    1  LIG1       -0.0234
     38 C          -9.7465    6.5385    0.0002 C.ar    1  LIG1        0.0828
     39 N         -10.2087    5.2730    0.0002 N.ar    1  LIG1       -0.2119
     40 H          -6.3672    6.0425   -0.0012 H       1  LIG1        0.0629
     41 O          -9.7724    3.0742   -0.0002 O.3     1  LIG1       -0.4792
     42 C         -11.2015    3.1256   -0.0003 C.3     1  LIG1        0.0804
     43 H         -11.5942    2.1302   -0.0005 H       1  LIG1        0.0660
     44 H         -11.5399    3.6423    0.8735 H       1  LIG1        0.0660
     45 H         -11.5398    3.6426   -0.8738 H       1  LIG1        0.0660
     46 C          -7.9993    8.1093    0.0002 C.3     1  LIG1       -0.0377
     47 H          -8.7311    8.7049    0.5046 H       1  LIG1        0.0278
     48 H          -7.8954    8.4505   -1.0087 H       1  LIG1        0.0278
     49 H          -7.0596    8.1960    0.5046 H       1  LIG1        0.0278
     50 C         -12.0191    7.1331    0.0008 C.ar    1  LIG1        0.2239
     51 C         -10.6531    7.4702    0.0005 C.ar    1  LIG1        0.0624
     52 C         -10.2997    8.8208    0.0008 C.ar    1  LIG1       -0.0431
     53 C         -11.3132    9.7806    0.0012 C.ar    1  LIG1       -0.0315
     54 C         -12.6510    9.3446    0.0013 C.ar    1  LIG1        0.0343
     55 N         -13.0098    8.0460    0.0012 N.ar    1  LIG1       -0.2205
     56 H          -9.2427    9.1225   -0.0004 H       1  LIG1        0.0629
     57 H         -13.6297   10.2002    0.0018 H       1  LIG1        0.0833
     58 O         -12.3978    5.8895    0.0006 O.3     1  LIG1       -0.4792
     59 C         -13.8263    5.8256    0.0005 C.3     1  LIG1        0.0804
     60 H         -14.1376    4.8018    0.0001 H       1  LIG1        0.0660
     61 H         -14.2053    6.3133    0.8743 H       1  LIG1        0.0660
     62 H         -14.2052    6.3138   -0.8730 H       1  LIG1        0.0660
     63 C         -11.0360   11.0510    0.0014 C.3     1  LIG1       -0.0383
     64 H         -11.8135   11.5857    0.5058 H       1  LIG1        0.0278
     65 H         -10.9599   11.3996   -1.0074 H       1  LIG1        0.0278
     66 H         -10.1063   11.2131    0.5058 H       1  LIG1        0.0278
@<TRIPOS>BOND
     1    32    30    1
     2    16    14    1
     3    48    46    1
     4    65    63    1
     5    29    26    1
     6    45    42    1
     7    13    10    1
     8    62    59    1
     9    24    20    1
    10    40    36    1
    11     7     3    1
    12    27    26    1
    13    43    42    1
    14    56    52    1
    15    19     5    1
    16    19    18   ar
    17    19    20   ar
    18    22    23   ar
    19    22    35    1
    20    22    21   ar
    21    30    21    1
    22    30    33    1
    23    30    31    1
    24    26    25    1
    25    26    28    1
    26     5     6   ar
    27     5     4   ar
    28    14     4    1
    29    14    17    1
    30    14    15    1
    31    18    25    1
    32    18    23   ar
    33    20    21   ar
    34    35    34   ar
    35    35    36   ar
    36    42    41    1
    37    42    44    1
    38    41    34    1
    39     6     1   ar
    40     4     3   ar
    41    34    39   ar
    42    36    37   ar
    43    11    10    1
    44     1     2   ar
    45     1     9    1
    46     2     3   ar
    47     2     8    1
    48    60    59    1
    49    39    38   ar
    50    38    37   ar
    51    38    51    1
    52    10     9    1
    53    10    12    1
    54    37    46    1
    55    46    49    1
    56    46    47    1
    57    59    58    1
    58    59    61    1
    59    51    50   ar
    60    51    52   ar
    61    58    50    1
    62    50    55   ar
    63    52    53   ar
    64    55    54   ar
    65    53    54   ar
    66    53    63    1
    67    54    57    1
    68    63    66    1
    69    63    64    1
