@<TRIPOS>MOLECULE
mol_data/noopt/geoms/mol2/6ll.out
 19 19 0 0 0
SMALL
GASTEIGER

@<TRIPOS>ATOM
      1 C          -4.5775   -2.0270    0.0001 C.ar    1  LIG1        0.2146
      2 C          -3.1706   -2.0270    0.0001 C.ar    1  LIG1        0.0034
      3 C          -2.5039   -0.8004    0.0001 C.ar    1  LIG1       -0.0134
      4 C          -3.2580    0.3743   -0.0001 C.ar    1  LIG1        0.1383
      5 C          -4.6612    0.2715   -0.0003 C.ar    1  LIG1        0.0730
      6 N          -5.3207   -0.9034   -0.0001 N.ar    1  LIG1       -0.2177
      7 H          -1.4054   -0.7607   -0.0009 H       1  LIG1        0.0656
      8 H          -2.5135   -3.1487    0.0004 H       1  LIG1        0.0672
      9 H          -5.4065    1.3366   -0.0004 H       1  LIG1        0.0868
     10 O          -5.2431   -3.1437    0.0002 O.3     1  LIG1       -0.4796
     11 C          -6.6454   -2.8635    0.0002 C.3     1  LIG1        0.0804
     12 H          -7.1928   -3.7829    0.0001 H       1  LIG1        0.0660
     13 H          -6.8964   -2.2991    0.8739 H       1  LIG1        0.0660
     14 H          -6.8963   -2.2990   -0.8734 H       1  LIG1        0.0660
     15 O          -2.6846    1.5410   -0.0003 O.3     1  LIG1       -0.4936
     16 C          -1.2643    1.3748   -0.0004 C.3     1  LIG1        0.0789
     17 H          -0.7927    2.3353   -0.0008 H       1  LIG1        0.0660
     18 H          -0.9685    0.8326    0.8734 H       1  LIG1        0.0660
     19 H          -0.9687    0.8321   -0.8739 H       1  LIG1        0.0660
@<TRIPOS>BOND
     1    19    16    1
     2    14    11    1
     3     7     3    1
     4    17    16    1
     5    16    15    1
     6    16    18    1
     7     9     5    1
     8     5     4   ar
     9     5     6   ar
    10    15     4    1
    11     4     3   ar
    12     6     1   ar
    13    12    11    1
    14     1     2   ar
    15     1    10    1
    16     3     2   ar
    17     2     8    1
    18    11    10    1
    19    11    13    1
