@<TRIPOS>MOLECULE
mol_data/noopt/geoms/mol2/6ll13al-12if13de.out
 53 56 0 0 0
SMALL
GASTEIGER

@<TRIPOS>ATOM
      1 C          -4.5775   -2.0270    0.0001 C.ar    1  LIG1        0.2152
      2 C          -3.1706   -2.0270    0.0001 C.ar    1  LIG1        0.0035
      3 C          -2.5039   -0.8004    0.0001 C.ar    1  LIG1       -0.0127
      4 C          -3.2580    0.3743   -0.0001 C.ar    1  LIG1        0.1476
      5 C          -4.6612    0.2715   -0.0003 C.ar    1  LIG1        0.1324
      6 N          -5.3207   -0.9034   -0.0001 N.ar    1  LIG1       -0.2077
      7 H          -1.4054   -0.7607   -0.0009 H       1  LIG1        0.0656
      8 H          -2.5135   -3.1487    0.0004 H       1  LIG1        0.0672
      9 O          -5.2431   -3.1437    0.0002 O.3     1  LIG1       -0.4796
     10 C          -6.6454   -2.8635    0.0002 C.3     1  LIG1        0.0804
     11 H          -7.1928   -3.7829    0.0001 H       1  LIG1        0.0660
     12 H          -6.8964   -2.2991    0.8739 H       1  LIG1        0.0660
     13 H          -6.8963   -2.2990   -0.8734 H       1  LIG1        0.0660
     14 O          -2.6846    1.5410   -0.0003 O.3     1  LIG1       -0.4929
     15 C          -1.2643    1.3748   -0.0004 C.3     1  LIG1        0.0789
     16 H          -0.7927    2.3353   -0.0008 H       1  LIG1        0.0660
     17 H          -0.9685    0.8326    0.8734 H       1  LIG1        0.0660
     18 H          -0.9687    0.8321   -0.8739 H       1  LIG1        0.0660
     19 C          -5.4065    1.3366   -0.0004 C.ar    1  LIG1        0.0728
     20 C          -5.0647    2.6523    0.0158 C.ar    1  LIG1        0.0078
     21 C          -6.2798    3.4100    0.0080 C.ar    1  LIG1        0.1489
     22 C          -7.3107    2.5241   -0.0144 C.ar    1  LIG1        0.1251
     23 N          -6.7805    1.2536   -0.0191 N.ar    1  LIG1       -0.3475
     24 H          -7.3063    0.4102   -0.0343 H       1  LIG1        0.1661
     25 H          -3.8561    3.1306    0.0362 H       1  LIG1        0.0676
     26 O          -6.3823    4.7059    0.0196 O.3     1  LIG1       -0.4929
     27 C          -5.0761    5.2879    0.0238 C.3     1  LIG1        0.0789
     28 H          -5.1608    6.3545    0.0332 H       1  LIG1        0.0660
     29 H          -4.5443    4.9647    0.8943 H       1  LIG1        0.0660
     30 H          -4.5456    4.9800   -0.8529 H       1  LIG1        0.0660
     31 C          -8.5950    2.7246   -0.0290 C.ar    1  LIG1        0.1620
     32 C          -9.4176    3.8320   -0.0252 C.ar    1  LIG1        0.0391
     33 C         -10.7785    3.3380   -0.0501 C.ar    1  LIG1        0.1678
     34 C         -10.6973    1.9608   -0.0675 C.ar    1  LIG1        0.1945
     35 O          -9.3614    1.5585   -0.0551 O.2     1  LIG1       -0.4477
     36 C          -9.0667    5.0839   -0.0036 C.3     1  LIG1       -0.0325
     37 H          -9.8139    5.6550    0.5066 H       1  LIG1        0.0280
     38 H          -8.9660    5.4434   -1.0064 H       1  LIG1        0.0280
     39 H          -8.1314    5.1834    0.5066 H       1  LIG1        0.0280
     40 O         -11.8512    4.0725   -0.0547 O.3     1  LIG1       -0.5030
     41 H         -12.6269    3.5068   -0.0558 H       1  LIG1        0.2923
     42 C         -11.5533    0.9827   -0.0921 C.ar    1  LIG1        0.1046
     43 C         -12.9125    1.0004   -0.1092 C.ar    1  LIG1        0.0954
     44 C         -13.3577   -0.3604   -0.1328 C.ar    1  LIG1        0.0600
     45 C         -12.2510   -1.1499   -0.1309 C.ar    1  LIG1        0.0190
     46 N         -11.1441   -0.3317   -0.1056 N.ar    1  LIG1       -0.3560
     47 H         -10.1995   -0.6408   -0.0987 H       1  LIG1        0.1655
     48 H         -12.1386   -2.4449   -0.1474 H       1  LIG1        0.0820
     49 N         -14.3306    2.9941   -0.0983 N.1     1  LIG1       -0.1908
     50 C         -13.6660    2.0597   -0.1034 C.1     1  LIG1        0.1026
     51 C         -14.5915   -0.7694   -0.1528 C.1     1  LIG1       -0.0669
     52 C         -15.7316   -1.1473   -0.1714 C.1     1  LIG1       -0.1138
     53 H         -16.7471   -1.4839   -0.1879 H       1  LIG1        0.1232
@<TRIPOS>BOND
     1    38    36    1
     2    18    15    1
     3    13    10    1
     4    30    27    1
     5    53    52    1
     6    52    51    3
     7    51    44    1
     8    48    45    1
     9    44    45   ar
    10    44    43   ar
    11    45    46   ar
    12    43    50    1
    13    43    42   ar
    14    46    47    1
    15    46    42   ar
    16    50    49    3
    17    42    34    1
    18    34    35   ar
    19    34    33   ar
    20    41    40    1
    21    35    31   ar
    22    40    33    1
    23    33    32   ar
    24    24    23    1
    25    31    32   ar
    26    31    22    1
    27    32    36    1
    28    23    22   ar
    29    23    19   ar
    30    22    21   ar
    31    36    39    1
    32    36    37    1
    33     7     3    1
    34    16    15    1
    35    15    14    1
    36    15    17    1
    37    19     5    1
    38    19    20   ar
    39    14     4    1
    40     5     6   ar
    41     5     4   ar
    42     6     1   ar
    43     4     3   ar
    44    11    10    1
    45     1     2   ar
    46     1     9    1
    47     3     2   ar
    48     2     8    1
    49    10     9    1
    50    10    12    1
    51    21    20   ar
    52    21    26    1
    53    20    25    1
    54    26    27    1
    55    27    28    1
    56    27    29    1
