@<TRIPOS>MOLECULE
mol_data/noopt/geoms/mol2/6ll13id6ei13ea-.out
 55 57 0 0 0
SMALL
GASTEIGER

@<TRIPOS>ATOM
      1 C          -4.5775   -2.0270    0.0001 C.ar    1  LIG1        0.2152
      2 C          -3.1706   -2.0270    0.0001 C.ar    1  LIG1        0.0036
      3 C          -2.5039   -0.8004    0.0001 C.ar    1  LIG1       -0.0077
      4 C          -3.2580    0.3743   -0.0001 C.ar    1  LIG1        0.2064
      5 C          -4.6612    0.2715   -0.0003 C.ar    1  LIG1        0.1376
      6 N          -5.3207   -0.9034   -0.0001 N.ar    1  LIG1       -0.2075
      7 H          -1.4054   -0.7607   -0.0009 H       1  LIG1        0.0658
      8 H          -2.5135   -3.1487    0.0004 H       1  LIG1        0.0672
      9 O          -5.2431   -3.1437    0.0002 O.3     1  LIG1       -0.4796
     10 C          -6.6454   -2.8635    0.0002 C.3     1  LIG1        0.0804
     11 H          -7.1928   -3.7829    0.0001 H       1  LIG1        0.0660
     12 H          -6.8964   -2.2991    0.8739 H       1  LIG1        0.0660
     13 H          -6.8963   -2.2990   -0.8734 H       1  LIG1        0.0660
     14 O          -2.6846    1.5410   -0.0003 O.3     1  LIG1       -0.2856
     15 C          -1.2643    1.3748   -0.0004 C.3     2  LIG2       -0.0681
     16 H          -0.7927    2.3353   -0.0008 H       1  LIG1        0.0227
     17 H          -0.9685    0.8326    0.8734 H       1  LIG1        0.0227
     18 H          -0.9687    0.8321   -0.8739 H       1  LIG1        0.0227
     19 C          -5.4065    1.3366   -0.0004 C.ar    1  LIG1        0.0735
     20 C          -5.0646    2.6523   -0.0008 C.ar    1  LIG1       -0.0056
     21 C          -6.2797    3.4100    0.0004 C.ar    1  LIG1        0.0806
     22 C          -7.3108    2.5240   -0.0003 C.ar    1  LIG1        0.0675
     23 N          -6.7806    1.2535   -0.0003 N.ar    1  LIG1       -0.3516
     24 H          -7.3066    0.4100   -0.0008 H       1  LIG1        0.1660
     25 C          -3.8556    3.1309   -0.0007 C.3     1  LIG1       -0.0364
     26 H          -3.8455    4.0745    0.5037 H       1  LIG1        0.0279
     27 H          -3.5239    3.2623   -1.0095 H       1  LIG1        0.0279
     28 H          -3.2024    2.4498    0.5037 H       1  LIG1        0.0279
     29 N          -6.4724    5.8490    0.0023 N.1     1  LIG1       -0.1908
     30 C          -6.3821    4.7060    0.0014 C.1     1  LIG1        0.1016
     31 C          -9.4850    1.6346    0.0006 C.ar    1  LIG1        0.1230
     32 C          -8.5952    2.7244    0.0002 C.ar    1  LIG1        0.0337
     33 C          -9.1237    4.0166    0.0006 C.ar    1  LIG1       -0.0449
     34 C         -10.5106    4.1754    0.0013 C.ar    1  LIG1       -0.0223
     35 C         -11.3184    3.0235    0.0014 C.ar    1  LIG1        0.0926
     36 N         -10.8254    1.7696    0.0012 N.ar    1  LIG1       -0.2360
     37 H          -8.4597    4.8926   -0.0007 H       1  LIG1        0.0628
     38 C          -9.0410    0.4128    0.0004 C.1     1  LIG1       -0.0491
     39 C          -8.6307   -0.7161    0.0001 C.1     1  LIG1       -0.1124
     40 H          -8.2653   -1.7218   -0.0001 H       1  LIG1        0.1232
     41 C         -11.0518    5.3578    0.0015 C.3     1  LIG1       -0.0376
     42 H         -11.9945    5.3184    0.5060 H       1  LIG1        0.0278
     43 H         -11.2004    5.6822   -1.0073 H       1  LIG1        0.0278
     44 H         -10.4057    6.0456    0.5059 H       1  LIG1        0.0278
     45 C         -12.6148    3.1198    0.0021 C.ar    1  LIG1        0.0808
     46 C         -13.4177    4.2168    0.0022 C.ar    1  LIG1        0.0514
     47 C         -14.7731    3.7548    0.0042 C.ar    1  LIG1       -0.0283
     48 C         -14.7389    2.3958    0.0035 C.ar    1  LIG1        0.0034
     49 N         -13.4195    2.0029    0.0027 N.ar    1  LIG1       -0.3585
     50 H         -13.0988    1.0620    0.0019 H       1  LIG1        0.1654
     51 H         -15.7065    1.5276    0.0045 H       1  LIG1        0.0807
     52 C         -13.0238    5.4557    0.0021 C.1     1  LIG1       -0.0675
     53 C         -12.6599    6.6005    0.0021 C.1     1  LIG1       -0.1138
     54 H         -12.3357    7.6202    0.0020 H       1  LIG1        0.1232
     55 H         -15.8417    4.4951    0.0059 H       1  LIG1        0.0645
@<TRIPOS>BOND
     1    27    25    1
     2    43    41    1
     3    18    15    1
     4    13    10    1
     5     7     3    1
     6    20    25    1
     7    20    19   ar
     8    20    21   ar
     9    24    23    1
    10    16    15    1
    11    25    28    1
    12    25    26    1
    13    37    33    1
    14    15    17    1
    15    19     5    1
    16    19    23   ar
    17    14     4    1
    18     5     4   ar
    19     5     6   ar
    20    23    22   ar
    21    22    32    1
    22    22    21   ar
    23    40    39    1
    24     4     3   ar
    25     6     1   ar
    26    11    10    1
    27     2     1   ar
    28     2     3   ar
    29     2     8    1
    30     1     9    1
    31    39    38    3
    32    10     9    1
    33    10    12    1
    34    32    31   ar
    35    32    33   ar
    36    38    31    1
    37    21    30    1
    38    31    36   ar
    39    33    34   ar
    40    36    35   ar
    41    34    35   ar
    42    34    41    1
    43    30    29    3
    44    35    45    1
    45    41    44    1
    46    41    42    1
    47    50    49    1
    48    54    53    1
    49    53    52    3
    50    45    46   ar
    51    45    49   ar
    52    52    46    1
    53    46    47   ar
    54    49    48   ar
    55    48    47   ar
    56    48    51    1
    57    47    55    1
