@<TRIPOS>MOLECULE
mol_data/noopt/geoms/mol2/6ll13fh-6ea-6hl-13fh-4da-13fh6ed-.out
 101 108 0 0 0
SMALL
GASTEIGER

@<TRIPOS>ATOM
      1 C          -4.5775   -2.0270    0.0001 C.ar    1  LIG1        0.2152
      2 C          -3.1706   -2.0270    0.0001 C.ar    1  LIG1        0.0035
      3 C          -2.5039   -0.8004    0.0001 C.ar    1  LIG1       -0.0127
      4 C          -3.2580    0.3743   -0.0001 C.ar    1  LIG1        0.1477
      5 C          -4.6612    0.2715   -0.0003 C.ar    1  LIG1        0.1360
      6 N          -5.3207   -0.9034   -0.0001 N.ar    1  LIG1       -0.2076
      7 H          -1.4054   -0.7607   -0.0009 H       1  LIG1        0.0656
      8 H          -2.5135   -3.1487    0.0004 H       1  LIG1        0.0672
      9 O          -5.2431   -3.1437    0.0002 O.3     1  LIG1       -0.4796
     10 C          -6.6454   -2.8635    0.0002 C.3     1  LIG1        0.0804
     11 H          -7.1928   -3.7829    0.0001 H       1  LIG1        0.0660
     12 H          -6.8964   -2.2991    0.8739 H       1  LIG1        0.0660
     13 H          -6.8963   -2.2990   -0.8734 H       1  LIG1        0.0660
     14 O          -2.6846    1.5410   -0.0003 O.3     1  LIG1       -0.4929
     15 C          -1.2643    1.3748   -0.0004 C.3     1  LIG1        0.0789
     16 H          -0.7927    2.3353   -0.0008 H       1  LIG1        0.0660
     17 H          -0.9685    0.8326    0.8734 H       1  LIG1        0.0660
     18 H          -0.9687    0.8321   -0.8739 H       1  LIG1        0.0660
     19 C          -5.4065    1.3366   -0.0004 C.ar    1  LIG1        0.1130
     20 C          -5.0647    2.6523    0.0158 C.ar    1  LIG1        0.1651
     21 C          -6.2798    3.4100    0.0080 C.ar    1  LIG1        0.0930
     22 C          -7.3107    2.5241   -0.0144 C.ar    1  LIG1        0.0742
     23 N          -6.7805    1.2536   -0.0191 N.ar    1  LIG1       -0.3484
     24 H          -7.3063    0.4102   -0.0343 H       1  LIG1        0.1661
     25 O          -3.8561    3.1306    0.0362 O.3     1  LIG1       -0.5030
     26 H          -3.8912    4.0900    0.0412 H       1  LIG1        0.2923
     27 N          -6.3823    4.7059    0.0196 N.pl3   1  LIG1       -0.3535
     28 H          -5.5949    5.1067   -0.4488 H       1  LIG1        0.1425
     29 H          -7.2228    4.9780   -0.4488 H       1  LIG1        0.1425
     30 C          -9.4846    1.6350   -0.0579 C.ar    1  LIG1        0.1229
     31 C          -8.5951    2.7246   -0.0290 C.ar    1  LIG1        0.0341
     32 C          -9.1237    4.0166   -0.0160 C.ar    1  LIG1       -0.0479
     33 C         -10.5104    4.1755   -0.0326 C.ar    1  LIG1       -0.0349
     34 C         -11.3180    3.0238   -0.0616 C.ar    1  LIG1        0.0758
     35 N         -10.8249    1.7700   -0.0742 N.ar    1  LIG1       -0.2376
     36 H          -8.4598    4.8925    0.0056 H       1  LIG1        0.0626
     37 C          -9.0405    0.4133   -0.0708 C.1     1  LIG1       -0.0491
     38 C          -8.6300   -0.7156   -0.0827 C.1     1  LIG1       -0.1124
     39 H          -8.2645   -1.7211   -0.0933 H       1  LIG1        0.1232
     40 H         -11.0516    5.3575   -0.0217 H       1  LIG1        0.0639
     41 C         -13.4132    1.9625   -0.1076 C.ar    1  LIG1        0.1264
     42 C         -12.6143    3.1202   -0.0777 C.ar    1  LIG1        0.0434
     43 C         -13.2453    4.3655   -0.0657 C.ar    1  LIG1       -0.0053
     44 C         -14.6403    4.4122   -0.0839 C.ar    1  LIG1        0.1483
     45 C         -15.3525    3.1991   -0.1137 C.ar    1  LIG1        0.1343
     46 N         -14.7599    1.9891   -0.1255 N.ar    1  LIG1       -0.2265
     47 H         -12.6542    5.2920   -0.0435 H       1  LIG1        0.0662
     48 N         -12.8720    0.7805   -0.1197 N.pl3   1  LIG1       -0.3426
     49 H         -13.4775    0.1416   -0.5942 H       1  LIG1        0.1437
     50 H         -11.9928    0.8213   -0.5942 H       1  LIG1        0.1437
     51 O         -15.2750    5.5467   -0.0739 O.3     1  LIG1       -0.4929
     52 C         -14.3315    6.6213   -0.0703 C.3     1  LIG1        0.0789
     53 H         -14.8543    7.5549   -0.0623 H       1  LIG1        0.0660
     54 H         -13.7140    6.5509    0.8006 H       1  LIG1        0.0660
     55 H         -13.7204    6.5624   -0.9466 H       1  LIG1        0.0660
     56 C         -16.6523    3.1908   -0.1314 C.ar    1  LIG1        0.1129
     57 C         -17.5408    4.2196   -0.1438 C.ar    1  LIG1        0.1651
     58 C         -18.8545    3.6499   -0.1605 C.ar    1  LIG1        0.0930
     59 C         -18.7110    2.2981   -0.1593 C.ar    1  LIG1        0.0728
     60 N         -17.3644    2.0127   -0.1411 N.ar    1  LIG1       -0.3484
     61 H         -16.9690    1.1007   -0.1363 H       1  LIG1        0.1661
     62 O         -17.2479    5.4862   -0.1396 O.3     1  LIG1       -0.5030
     63 H         -18.0575    6.0022   -0.1386 H       1  LIG1        0.2923
     64 N         -19.9792    4.3019   -0.1746 N.pl3   1  LIG1       -0.3535
     65 H         -19.8536    5.1728   -0.6496 H       1  LIG1        0.1425
     66 H         -20.6725    3.7601   -0.6497 H       1  LIG1        0.1425
     67 C         -20.9759    1.6861   -0.1553 C.ar    1  LIG1        0.0615
     68 C         -21.9053    0.6281   -0.1674 C.ar    1  LIG1       -0.0345
     69 C         -19.6055    1.3549   -0.1710 C.ar    1  LIG1        0.0176
     70 C         -21.4909   -0.7016   -0.1946 C.ar    1  LIG1        0.0032
     71 H         -22.9677    0.8614   -0.1554 H       1  LIG1        0.0637
     72 C         -19.1913    0.0276   -0.1982 C.ar    1  LIG1       -0.0507
     73 C         -20.1299   -1.0094   -0.2103 C.ar    1  LIG1       -0.0518
     74 H         -18.1289   -0.2021   -0.2098 H       1  LIG1        0.0625
     75 N         -21.8178    3.9828   -0.1078 N.1     1  LIG1       -0.1908
     76 C         -21.4232    2.9065   -0.1300 C.1     1  LIG1        0.0998
     77 H         -19.7368   -2.2483   -0.2355 H       1  LIG1        0.0624
     78 C         -22.3762   -1.6535   -0.2053 C.ar    1  LIG1        0.0909
     79 C         -23.7343   -1.5947   -0.2129 C.ar    1  LIG1        0.1635
     80 C         -24.2206   -2.9416   -0.2224 C.ar    1  LIG1        0.0930
     81 C         -23.1383   -3.7642   -0.2219 C.ar    1  LIG1        0.0742
     82 N         -22.0071   -2.9796   -0.2110 N.ar    1  LIG1       -0.3497
     83 H         -21.0721   -3.3172   -0.2083 H       1  LIG1        0.1661
     84 O         -24.4554   -0.5130   -0.2103 O.3     1  LIG1       -0.5031
     85 H         -25.3862   -0.7484   -0.2097 H       1  LIG1        0.2923
     86 N         -25.4664   -3.3132   -0.2304 N.pl3   1  LIG1       -0.3535
     87 H         -26.0164   -2.6252   -0.7039 H       1  LIG1        0.1425
     88 H         -25.5496   -4.1900   -0.7039 H       1  LIG1        0.1425
     89 C         -21.8133   -5.7037   -0.2535 C.ar    1  LIG1        0.1223
     90 C         -23.0652   -5.0621   -0.2287 C.ar    1  LIG1        0.0353
     91 C         -24.2178   -5.8496   -0.2115 C.ar    1  LIG1       -0.0310
     92 C         -24.0825   -7.2389   -0.2197 C.ar    1  LIG1        0.0705
     93 C         -22.7871   -7.7874   -0.2451 C.ar    1  LIG1        0.0464
     94 N         -21.6645   -7.0426   -0.2617 N.ar    1  LIG1       -0.2448
     95 H         -25.2133   -5.3840   -0.1930 H       1  LIG1        0.0638
     96 H         -22.6097   -9.0752   -0.2535 H       1  LIG1        0.0843
     97 C         -20.7118   -5.0135   -0.2701 C.1     1  LIG1       -0.0491
     98 C         -19.6941   -4.3757   -0.2854 C.1     1  LIG1       -0.1124
     99 H         -18.7874   -3.8076   -0.2991 H       1  LIG1        0.1232
    100 N         -26.0441   -8.7009   -0.1913 N.1     1  LIG1       -0.1908
    101 C         -25.1248   -8.0157   -0.2046 C.1     1  LIG1        0.1007
@<TRIPOS>BOND
     1    55    52    1
     2    18    15    1
     3    13    10    1
     4    88    86    1
     5    87    86    1
     6    66    64    1
     7    65    64    1
     8    50    48    1
     9    49    48    1
    10    29    27    1
    11    28    27    1
    12    99    98    1
    13    98    97    3
    14    97    89    1
    15    94    89   ar
    16    94    93   ar
    17    96    93    1
    18    89    90   ar
    19    93    92   ar
    20    77    73    1
    21    86    80    1
    22    90    81    1
    23    90    91   ar
    24    80    81   ar
    25    80    79   ar
    26    81    82   ar
    27    92    91   ar
    28    92   101    1
    29    79    84    1
    30    79    78   ar
    31    91    95    1
    32    82    83    1
    33    82    78   ar
    34    84    85    1
    35    73    72   ar
    36    73    70   ar
    37    74    72    1
    38    78    70    1
    39   101   100    3
    40    72    69   ar
    41    70    68   ar
    42    64    58    1
    43    69    59    1
    44    69    67   ar
    45    68    71    1
    46    68    67   ar
    47    58    59   ar
    48    58    57   ar
    49    59    60   ar
    50    67    76    1
    51    57    62    1
    52    57    56   ar
    53    60    61    1
    54    60    56   ar
    55    62    63    1
    56    56    45    1
    57    76    75    3
    58    46    45   ar
    59    46    41   ar
    60    48    41    1
    61    45    44   ar
    62    41    42   ar
    63    39    38    1
    64    44    51    1
    65    44    43   ar
    66    38    37    3
    67    42    43   ar
    68    42    34    1
    69    35    34   ar
    70    35    30   ar
    71    51    52    1
    72    37    30    1
    73    52    53    1
    74    52    54    1
    75    43    47    1
    76    34    33   ar
    77    30    31   ar
    78    24    23    1
    79    33    40    1
    80    33    32   ar
    81    31    32   ar
    82    31    22    1
    83    23    22   ar
    84    23    19   ar
    85    32    36    1
    86    22    21   ar
    87     7     3    1
    88    16    15    1
    89    15    14    1
    90    15    17    1
    91    19     5    1
    92    19    20   ar
    93     5     6   ar
    94     5     4   ar
    95    14     4    1
    96     6     1   ar
    97     4     3   ar
    98    11    10    1
    99     3     2   ar
   100     2     1   ar
   101     2     8    1
   102     1     9    1
   103    10     9    1
   104    10    12    1
   105    21    20   ar
   106    21    27    1
   107    20    25    1
   108    25    26    1
