@<TRIPOS>MOLECULE
mol_data/noopt/geoms/mol2/6ll12eh13ai4fh-.out
 54 57 0 0 0
SMALL
GASTEIGER

@<TRIPOS>ATOM
      1 C          -4.5775   -2.0270    0.0001 C.ar    1  LIG1        0.2153
      2 C          -3.1706   -2.0270    0.0001 C.ar    1  LIG1        0.0035
      3 C          -2.5039   -0.8004    0.0001 C.ar    1  LIG1       -0.0127
      4 C          -3.2580    0.3743   -0.0001 C.ar    1  LIG1        0.1493
      5 C          -4.6612    0.2715   -0.0003 C.ar    1  LIG1        0.1525
      6 N          -5.3207   -0.9034   -0.0001 N.ar    1  LIG1       -0.2060
      7 H          -1.4054   -0.7607   -0.0009 H       1  LIG1        0.0656
      8 H          -2.5135   -3.1487    0.0004 H       1  LIG1        0.0672
      9 O          -5.2431   -3.1437    0.0002 O.3     1  LIG1       -0.4796
     10 C          -6.6454   -2.8635    0.0002 C.3     1  LIG1        0.0804
     11 H          -7.1928   -3.7829    0.0001 H       1  LIG1        0.0660
     12 H          -6.8964   -2.2991    0.8739 H       1  LIG1        0.0660
     13 H          -6.8963   -2.2990   -0.8734 H       1  LIG1        0.0660
     14 O          -2.6846    1.5410   -0.0003 O.3     1  LIG1       -0.4929
     15 C          -1.2643    1.3748   -0.0004 C.3     1  LIG1        0.0789
     16 H          -0.7927    2.3353   -0.0008 H       1  LIG1        0.0660
     17 H          -0.9685    0.8326    0.8734 H       1  LIG1        0.0660
     18 H          -0.9687    0.8321   -0.8739 H       1  LIG1        0.0660
     19 C          -5.4065    1.3366   -0.0004 C.ar    1  LIG1        0.1747
     20 C          -5.1776    2.6970   -0.0005 C.ar    1  LIG1        0.0933
     21 C          -6.4770    3.3362   -0.0006 C.ar    1  LIG1        0.0887
     22 C          -7.4141    2.3236   -0.0007 C.ar    1  LIG1        0.1736
     23 O          -6.7786    1.0814   -0.0006 O.2     1  LIG1       -0.4485
     24 C          -4.0318    3.3111   -0.0004 C.1     1  LIG1       -0.0639
     25 C          -2.9731    3.8785   -0.0003 C.1     1  LIG1       -0.1137
     26 H          -2.0300    4.3839   -0.0002 H       1  LIG1        0.1232
     27 N          -6.6905    4.6186   -0.0007 N.pl3   1  LIG1       -0.3540
     28 H          -5.9398    5.0814   -0.4721 H       1  LIG1        0.1425
     29 H          -7.5506    4.8133   -0.4721 H       1  LIG1        0.1425
     30 C          -8.7127    2.2633   -0.0007 C.ar    1  LIG1        0.0847
     31 C          -9.6417    3.2556    0.0155 C.ar    1  LIG1       -0.0298
     32 C         -10.9317    2.6340    0.0077 C.ar    1  LIG1       -0.0244
     33 C         -10.7343    1.2891   -0.0146 C.ar    1  LIG1        0.0535
     34 N          -9.3772    1.0578   -0.0194 N.ar    1  LIG1       -0.3514
     35 H          -8.9457    0.1625   -0.0346 H       1  LIG1        0.1660
     36 H          -9.3996    4.5327    0.0359 H       1  LIG1        0.0642
     37 C         -12.0818    3.2405    0.0194 C.3     1  LIG1       -0.0377
     38 H         -12.8008    2.6320    0.5270 H       1  LIG1        0.0278
     39 H         -12.4054    3.4110   -0.9862 H       1  LIG1        0.0278
     40 H         -11.9857    4.1775    0.5270 H       1  LIG1        0.0278
     41 C         -12.9729    0.5874   -0.0149 C.ar    1  LIG1        0.1261
     42 C         -13.8594   -0.5068   -0.0301 C.ar    1  LIG1       -0.0178
     43 C         -11.5905    0.3111   -0.0292 C.ar    1  LIG1        0.0417
     44 C         -13.3923   -1.8189   -0.0588 C.ar    1  LIG1       -0.0376
     45 H         -14.9302   -0.3161   -0.0193 H       1  LIG1        0.0655
     46 C         -11.1236   -0.9986   -0.0578 C.ar    1  LIG1       -0.0284
     47 C         -12.0201   -2.0722   -0.0729 C.ar    1  LIG1        0.0254
     48 H         -10.0528   -1.1858   -0.0682 H       1  LIG1        0.0644
     49 H         -14.2390   -2.8053   -0.0722 H       1  LIG1        0.0637
     50 O         -13.4687    1.7889    0.0115 O.3     1  LIG1       -0.5061
     51 H         -14.4274    1.7399    0.0181 H       1  LIG1        0.2922
     52 N         -11.5779   -3.2944   -0.0995 N.pl3   1  LIG1       -0.3579
     53 H         -12.2356   -3.8765   -0.5777 H       1  LIG1        0.1423
     54 H         -10.7000   -3.3209   -0.5777 H       1  LIG1        0.1423
@<TRIPOS>BOND
     1    39    37    1
     2    18    15    1
     3    13    10    1
     4    54    52    1
     5    53    52    1
     6    29    27    1
     7    28    27    1
     8    52    47    1
     9    47    44   ar
    10    47    46   ar
    11    49    44    1
    12    48    46    1
    13    44    42   ar
    14    46    43   ar
    15    35    34    1
    16    42    45    1
    17    42    41   ar
    18    43    41   ar
    19    43    33    1
    20    34    33   ar
    21    34    30   ar
    22    41    50    1
    23    33    32   ar
    24     7     3    1
    25    16    15    1
    26    30    22    1
    27    30    31   ar
    28    27    21    1
    29    22    23   ar
    30    22    21   ar
    31    23    19   ar
    32    21    20   ar
    33    20    19   ar
    34    20    24    1
    35    15    14    1
    36    15    17    1
    37    19     5    1
    38    24    25    3
    39     5     6   ar
    40     5     4   ar
    41    14     4    1
    42    25    26    1
    43     6     1   ar
    44     4     3   ar
    45    11    10    1
    46     1     2   ar
    47     1     9    1
    48     3     2   ar
    49     2     8    1
    50    10     9    1
    51    10    12    1
    52    32    31   ar
    53    32    37    1
    54    50    51    1
    55    31    36    1
    56    37    40    1
    57    37    38    1
