@<TRIPOS>MOLECULE
mol_data/noopt/geoms/mol2/6ll4ha(110)13ea(110)12ei(120).out
 53 56 0 0 0
SMALL
GASTEIGER

@<TRIPOS>ATOM
      1 C          -4.5775   -2.0270    0.0001 C.ar    1  LIG1        0.2152
      2 C          -3.1706   -2.0270    0.0001 C.ar    1  LIG1        0.0035
      3 C          -2.5039   -0.8004    0.0001 C.ar    1  LIG1       -0.0128
      4 C          -3.2580    0.3743   -0.0001 C.ar    1  LIG1        0.1462
      5 C          -4.6612    0.2715   -0.0003 C.ar    1  LIG1        0.1180
      6 N          -5.3207   -0.9034   -0.0001 N.ar    1  LIG1       -0.2092
      7 H          -1.4054   -0.7607   -0.0009 H       1  LIG1        0.0656
      8 H          -2.5135   -3.1487    0.0004 H       1  LIG1        0.0672
      9 O          -5.2431   -3.1437    0.0002 O.3     1  LIG1       -0.4796
     10 C          -6.6454   -2.8635    0.0002 C.3     1  LIG1        0.0804
     11 H          -7.1928   -3.7829    0.0001 H       1  LIG1        0.0660
     12 H          -6.8964   -2.2991    0.8739 H       1  LIG1        0.0660
     13 H          -6.8963   -2.2990   -0.8734 H       1  LIG1        0.0660
     14 O          -2.6846    1.5410   -0.0003 O.3     1  LIG1       -0.4930
     15 C          -1.2643    1.3748   -0.0004 C.3     1  LIG1        0.0789
     16 H          -0.7927    2.3353   -0.0008 H       1  LIG1        0.0660
     17 H          -0.9685    0.8326    0.8734 H       1  LIG1        0.0660
     18 H          -0.9687    0.8321   -0.8739 H       1  LIG1        0.0660
     19 C          -6.1524    1.6721    1.1480 C.ar    1  LIG1        0.0346
     20 C          -6.9454    2.8348    1.0970 C.ar    1  LIG1       -0.0313
     21 C          -5.4065    1.3366   -0.0004 C.ar    1  LIG1        0.0247
     22 C          -6.9945    3.6301   -0.0457 C.ar    1  LIG1        0.0013
     23 H          -7.5291    3.1120    1.9720 H       1  LIG1        0.0643
     24 C          -5.4552    2.1302   -1.1414 C.ar    1  LIG1       -0.0501
     25 C          -6.2486    3.2817   -1.1724 C.ar    1  LIG1       -0.0519
     26 H          -4.8709    1.8503   -2.0142 H       1  LIG1        0.0625
     27 N          -6.1473    0.9705    2.2425 N.pl3   1  LIG1       -0.3574
     28 H          -6.9595    0.3878    2.2687 H       1  LIG1        0.1423
     29 H          -5.3266    0.3997    2.2687 H       1  LIG1        0.1423
     30 H          -6.2903    4.0197   -2.2418 H       1  LIG1        0.0624
     31 C          -7.7373    4.6970   -0.0581 C.ar    1  LIG1        0.0626
     32 C          -8.5583    5.2111    0.8956 C.ar    1  LIG1        0.0506
     33 C          -9.1398    6.4054    0.3607 C.ar    1  LIG1       -0.0173
     34 C          -8.6472    6.5695   -0.8957 C.ar    1  LIG1        0.0850
     35 N          -7.7885    5.5255   -1.1562 N.ar    1  LIG1       -0.3507
     36 H          -7.2849    5.3916   -2.0027 H       1  LIG1        0.1660
     37 C          -8.7745    4.7076    2.0745 C.1     1  LIG1       -0.0675
     38 C          -8.9742    4.2423    3.1637 C.1     1  LIG1       -0.1138
     39 H          -9.1521    3.8279    4.1340 H       1  LIG1        0.1232
     40 H          -9.9831    7.1907    0.9625 H       1  LIG1        0.0652
     41 C          -8.8746    7.4985   -1.7762 C.ar    1  LIG1        0.1664
     42 C          -9.6937    8.6061   -1.8480 C.ar    1  LIG1        0.0747
     43 C          -9.4486    9.2205   -3.1362 C.ar    1  LIG1        0.0034
     44 C          -8.4953    8.4472   -3.7663 C.ar    1  LIG1        0.0968
     45 O          -8.1255    7.3795   -2.9477 O.2     1  LIG1       -0.4599
     46 H          -7.8820    8.4842   -4.9119 H       1  LIG1        0.1032
     47 C         -10.5304    9.0364   -0.9510 C.1     1  LIG1       -0.0656
     48 C         -11.3036    9.4340   -0.1221 C.1     1  LIG1       -0.1138
     49 H         -11.9923    9.7882    0.6163 H       1  LIG1        0.1232
     50 C         -10.0287   10.2935   -3.5867 C.3     1  LIG1       -0.0355
     51 H         -11.0394   10.3261   -3.2371 H       1  LIG1        0.0279
     52 H         -10.0216   10.2804   -4.6566 H       1  LIG1        0.0279
     53 H          -9.5023   11.1570   -3.2371 H       1  LIG1        0.0279
@<TRIPOS>BOND
     1    46    44    1
     2    52    50    1
     3    44    43   ar
     4    44    45   ar
     5    50    53    1
     6    50    51    1
     7    50    43    1
     8    43    42   ar
     9    45    41   ar
    10    30    25    1
    11    26    24    1
    12    36    35    1
    13    42    41   ar
    14    42    47    1
    15    41    34    1
    16    25    24   ar
    17    25    22   ar
    18    35    34   ar
    19    35    31   ar
    20    24    21   ar
    21    47    48    3
    22    34    33   ar
    23    18    15    1
    24    13    10    1
    25    48    49    1
    26    31    22    1
    27    31    32   ar
    28    22    20   ar
    29     7     3    1
    30    16    15    1
    31    15    14    1
    32    15    17    1
    33    21     5    1
    34    21    19   ar
    35    14     4    1
    36     5     6   ar
    37     5     4   ar
    38     6     1   ar
    39     4     3   ar
    40    11    10    1
    41     1     2   ar
    42     1     9    1
    43     2     3   ar
    44     2     8    1
    45    10     9    1
    46    10    12    1
    47    33    32   ar
    48    33    40    1
    49    32    37    1
    50    20    19   ar
    51    20    23    1
    52    19    27    1
    53    37    38    3
    54    27    28    1
    55    27    29    1
    56    38    39    1
