@<TRIPOS>MOLECULE
mol_data/noopt/geoms/mol2/6ll4hf(170)12af(10)4dd(120).out
 52 55 0 0 0
SMALL
GASTEIGER

@<TRIPOS>ATOM
      1 C          -4.5775   -2.0270    0.0001 C.ar    1  LIG1        0.2152
      2 C          -3.1706   -2.0270    0.0001 C.ar    1  LIG1        0.0035
      3 C          -2.5039   -0.8004    0.0001 C.ar    1  LIG1       -0.0128
      4 C          -3.2580    0.3743   -0.0001 C.ar    1  LIG1        0.1462
      5 C          -4.6612    0.2715   -0.0003 C.ar    1  LIG1        0.1181
      6 N          -5.3207   -0.9034   -0.0001 N.ar    1  LIG1       -0.2092
      7 H          -1.4054   -0.7607   -0.0009 H       1  LIG1        0.0656
      8 H          -2.5135   -3.1487    0.0004 H       1  LIG1        0.0672
      9 O          -5.2431   -3.1437    0.0002 O.3     1  LIG1       -0.4796
     10 C          -6.6454   -2.8635    0.0002 C.3     1  LIG1        0.0804
     11 H          -7.1928   -3.7829    0.0001 H       1  LIG1        0.0660
     12 H          -6.8964   -2.2991    0.8739 H       1  LIG1        0.0660
     13 H          -6.8963   -2.2990   -0.8734 H       1  LIG1        0.0660
     14 O          -2.6846    1.5410   -0.0003 O.3     1  LIG1       -0.4930
     15 C          -1.2643    1.3748   -0.0004 C.3     1  LIG1        0.0789
     16 H          -0.7927    2.3353   -0.0008 H       1  LIG1        0.0660
     17 H          -0.9685    0.8326    0.8734 H       1  LIG1        0.0660
     18 H          -0.9687    0.8321   -0.8739 H       1  LIG1        0.0660
     19 C          -6.7957    1.2219    0.2111 C.ar    1  LIG1        0.0349
     20 C          -7.5595    2.4050    0.2002 C.ar    1  LIG1       -0.0262
     21 C          -5.4065    1.3366   -0.0004 C.ar    1  LIG1        0.0282
     22 C          -6.9682    3.6485   -0.0112 C.ar    1  LIG1        0.0605
     23 H          -8.6332    2.3392    0.3611 H       1  LIG1        0.0644
     24 C          -4.8157    2.5778   -0.2114 C.ar    1  LIG1       -0.0084
     25 C          -5.5914    3.7417   -0.2182 C.ar    1  LIG1        0.1282
     26 H          -3.7425    2.6401   -0.3722 H       1  LIG1        0.0661
     27 N          -7.4040    0.0910    0.4137 N.pl3   1  LIG1       -0.3574
     28 H          -8.3139    0.1231   -0.0001 H       1  LIG1        0.1423
     29 H          -6.8758   -0.6505   -0.0001 H       1  LIG1        0.1423
     30 O          -5.0336    4.8992   -0.4162 O.3     1  LIG1       -0.5060
     31 H          -5.7114    5.5774   -0.4649 H       1  LIG1        0.2922
     32 C          -7.7035    4.7206   -0.0147 C.ar    1  LIG1        0.1429
     33 C          -7.4715    6.0727    0.1303 C.ar    1  LIG1        0.0266
     34 C          -8.7578    6.7285    0.0202 C.ar    1  LIG1        0.1633
     35 C          -9.6910    5.7331   -0.1849 C.ar    1  LIG1        0.1781
     36 O          -9.0653    4.4863   -0.2104 O.2     1  LIG1       -0.4509
     37 H          -6.3327    6.6679    0.3278 H       1  LIG1        0.0692
     38 O          -8.9648    8.0093    0.1025 O.3     1  LIG1       -0.5032
     39 H          -9.9092    8.1806    0.1228 H       1  LIG1        0.2923
     40 C         -11.7937    5.0537    0.6031 C.ar    1  LIG1        0.0626
     41 C         -13.1829    5.0348    0.3727 C.ar    1  LIG1       -0.0424
     42 C         -10.9792    5.6919   -0.3545 C.ar    1  LIG1        0.0395
     43 C         -13.7388    5.6251   -0.7600 C.ar    1  LIG1       -0.0431
     44 H         -13.8298    4.5474    1.0988 H       1  LIG1        0.0631
     45 C         -11.5336    6.2815   -1.4855 C.ar    1  LIG1       -0.0323
     46 C         -12.9161    6.2525   -1.6964 C.ar    1  LIG1        0.0525
     47 H         -10.8844    6.7675   -2.2094 H       1  LIG1        0.0638
     48 H         -15.0256    5.5892   -0.9411 H       1  LIG1        0.0631
     49 N         -10.9286    3.9855    2.6270 N.1     1  LIG1       -0.1908
     50 C         -11.3341    4.4861    1.6785 C.1     1  LIG1        0.0999
     51 N         -13.8807    7.2926   -3.6898 N.1     1  LIG1       -0.1909
     52 C         -13.4287    6.8052   -2.7556 C.1     1  LIG1        0.0992
@<TRIPOS>BOND
     1    51    52    3
     2    52    46    1
     3    47    45    1
     4    46    45   ar
     5    46    43   ar
     6    45    42   ar
     7    48    43    1
     8    18    15    1
     9    13    10    1
    10    43    41   ar
    11    31    30    1
    12    30    25    1
    13    26    24    1
    14    42    35    1
    15    42    40   ar
    16    25    24   ar
    17    25    22   ar
    18    24    21   ar
    19    36    35   ar
    20    36    32   ar
    21    35    34   ar
    22    32    22    1
    23    32    33   ar
    24    22    20   ar
    25     7     3    1
    26    16    15    1
    27    15    14    1
    28    15    17    1
    29    21     5    1
    30    21    19   ar
    31    14     4    1
    32     5     6   ar
    33     5     4   ar
    34     6     1   ar
    35     4     3   ar
    36    29    27    1
    37    28    27    1
    38    11    10    1
    39     1     2   ar
    40     1     9    1
    41     2     3   ar
    42     2     8    1
    43    10     9    1
    44    10    12    1
    45    34    38    1
    46    34    33   ar
    47    38    39    1
    48    33    37    1
    49    20    19   ar
    50    20    23    1
    51    19    27    1
    52    41    40   ar
    53    41    44    1
    54    40    50    1
    55    50    49    3
