@<TRIPOS>MOLECULE
mol_data/noopt/geoms/mol2/6ll6ll6ll6ll.out
 70 73 0 0 0
SMALL
GASTEIGER

@<TRIPOS>ATOM
      1 C          -4.5775   -2.0270    0.0001 C.ar    1  LIG1        0.2152
      2 C          -3.1706   -2.0270    0.0001 C.ar    1  LIG1        0.0035
      3 C          -2.5039   -0.8004    0.0001 C.ar    1  LIG1       -0.0128
      4 C          -3.2580    0.3743   -0.0001 C.ar    1  LIG1        0.1464
      5 C          -4.6612    0.2715   -0.0003 C.ar    1  LIG1        0.1215
      6 N          -5.3207   -0.9034   -0.0001 N.ar    1  LIG1       -0.2090
      7 H          -1.4054   -0.7607   -0.0009 H       1  LIG1        0.0656
      8 H          -2.5135   -3.1487    0.0004 H       1  LIG1        0.0672
      9 O          -5.2431   -3.1437    0.0002 O.3     1  LIG1       -0.4796
     10 C          -6.6454   -2.8635    0.0002 C.3     1  LIG1        0.0804
     11 H          -7.1928   -3.7829    0.0001 H       1  LIG1        0.0660
     12 H          -6.8964   -2.2991    0.8739 H       1  LIG1        0.0660
     13 H          -6.8963   -2.2990   -0.8734 H       1  LIG1        0.0660
     14 O          -2.6846    1.5410   -0.0003 O.3     1  LIG1       -0.4930
     15 C          -1.2643    1.3748   -0.0004 C.3     1  LIG1        0.0789
     16 H          -0.7927    2.3353   -0.0008 H       1  LIG1        0.0660
     17 H          -0.9685    0.8326    0.8734 H       1  LIG1        0.0660
     18 H          -0.9687    0.8321   -0.8739 H       1  LIG1        0.0660
     19 C          -6.8088    1.2233   -0.0003 C.ar    1  LIG1        0.2248
     20 C          -5.4065    1.3366   -0.0004 C.ar    1  LIG1        0.0690
     21 C          -4.8408    2.6129   -0.0003 C.ar    1  LIG1       -0.0034
     22 C          -5.6871    3.7231   -0.0003 C.ar    1  LIG1        0.1470
     23 C          -7.0774    3.5076   -0.0004 C.ar    1  LIG1        0.1215
     24 N          -7.6401    2.2834   -0.0003 N.ar    1  LIG1       -0.2085
     25 H          -3.7491    2.7410   -0.0014 H       1  LIG1        0.0663
     26 O          -7.3823    0.0566   -0.0003 O.3     1  LIG1       -0.4792
     27 C          -8.8026    0.2229   -0.0004 C.3     1  LIG1        0.0804
     28 H          -9.2743   -0.7375   -0.0005 H       1  LIG1        0.0660
     29 H          -9.0983    0.7653    0.8734 H       1  LIG1        0.0660
     30 H          -9.0982    0.7655   -0.8739 H       1  LIG1        0.0660
     31 O          -5.2095    4.9322   -0.0004 O.3     1  LIG1       -0.4929
     32 C          -3.7804    4.8809   -0.0005 C.3     1  LIG1        0.0789
     33 H          -3.3877    5.8763   -0.0007 H       1  LIG1        0.0660
     34 H          -3.4420    4.3642    0.8733 H       1  LIG1        0.0660
     35 H          -3.4421    4.3639   -0.8740 H       1  LIG1        0.0660
     36 C          -9.2948    4.2833   -0.0001 C.ar    1  LIG1        0.2248
     37 C          -7.9061    4.5092   -0.0003 C.ar    1  LIG1        0.0690
     38 C          -7.4450    5.8270   -0.0001 C.ar    1  LIG1       -0.0034
     39 C          -8.3780    6.8653    0.0002 C.ar    1  LIG1        0.1470
     40 C          -9.7465    6.5385    0.0002 C.ar    1  LIG1        0.1215
     41 N         -10.2087    5.2730    0.0002 N.ar    1  LIG1       -0.2085
     42 H          -6.3672    6.0425   -0.0012 H       1  LIG1        0.0663
     43 O          -9.7724    3.0742   -0.0002 O.3     1  LIG1       -0.4792
     44 C         -11.2015    3.1256   -0.0003 C.3     1  LIG1        0.0804
     45 H         -11.5942    2.1302   -0.0005 H       1  LIG1        0.0660
     46 H         -11.5399    3.6423    0.8735 H       1  LIG1        0.0660
     47 H         -11.5398    3.6426   -0.8738 H       1  LIG1        0.0660
     48 O          -7.9993    8.1090    0.0002 O.3     1  LIG1       -0.4929
     49 C          -6.5708    8.1730    0.0001 C.3     1  LIG1        0.0789
     50 H          -6.2596    9.1967   -0.0000 H       1  LIG1        0.0660
     51 H          -6.1918    7.6852    0.8739 H       1  LIG1        0.0660
     52 H          -6.1919    7.6849   -0.8734 H       1  LIG1        0.0660
     53 C         -12.0191    7.1331    0.0008 C.ar    1  LIG1        0.2242
     54 C         -10.6531    7.4702    0.0005 C.ar    1  LIG1        0.0690
     55 C         -10.2997    8.8208    0.0008 C.ar    1  LIG1       -0.0040
     56 C         -11.3132    9.7806    0.0012 C.ar    1  LIG1        0.1390
     57 C         -12.6510    9.3446    0.0013 C.ar    1  LIG1        0.0730
     58 N         -13.0098    8.0460    0.0012 N.ar    1  LIG1       -0.2171
     59 H          -9.2427    9.1225   -0.0004 H       1  LIG1        0.0663
     60 H         -13.6297   10.2002    0.0018 H       1  LIG1        0.0868
     61 O         -12.3978    5.8895    0.0006 O.3     1  LIG1       -0.4792
     62 C         -13.8263    5.8256    0.0005 C.3     1  LIG1        0.0804
     63 H         -14.1376    4.8018    0.0001 H       1  LIG1        0.0660
     64 H         -14.2053    6.3133    0.8743 H       1  LIG1        0.0660
     65 H         -14.2052    6.3138   -0.8730 H       1  LIG1        0.0660
     66 O         -11.0360   11.0507    0.0014 O.3     1  LIG1       -0.4936
     67 C          -9.6173   11.2296    0.0013 C.3     1  LIG1        0.0789
     68 H          -9.3895   12.2751    0.0013 H       1  LIG1        0.0660
     69 H          -9.2003   10.7738    0.8751 H       1  LIG1        0.0660
     70 H          -9.2003   10.7737   -0.8722 H       1  LIG1        0.0660
@<TRIPOS>BOND
     1    35    32    1
     2    18    15    1
     3    30    27    1
     4    47    44    1
     5    52    49    1
     6    13    10    1
     7    65    62    1
     8    70    67    1
     9    25    21    1
    10    42    38    1
    11     7     3    1
    12    16    15    1
    13    33    32    1
    14    28    27    1
    15    45    44    1
    16    32    31    1
    17    32    34    1
    18    59    55    1
    19    15    14    1
    20    15    17    1
    21    20     5    1
    22    20    19   ar
    23    20    21   ar
    24    23    24   ar
    25    23    37    1
    26    23    22   ar
    27    31    22    1
    28    27    26    1
    29    27    29    1
    30     5     6   ar
    31     5     4   ar
    32    14     4    1
    33    19    26    1
    34    19    24   ar
    35    21    22   ar
    36    37    36   ar
    37    37    38   ar
    38    44    43    1
    39    44    46    1
    40    43    36    1
    41     6     1   ar
    42     4     3   ar
    43    36    41   ar
    44    38    39   ar
    45    50    49    1
    46    11    10    1
    47     1     2   ar
    48     1     9    1
    49     2     3   ar
    50     2     8    1
    51    49    48    1
    52    49    51    1
    53    63    62    1
    54    41    40   ar
    55    40    39   ar
    56    40    54    1
    57    10     9    1
    58    10    12    1
    59    39    48    1
    60    62    61    1
    61    62    64    1
    62    54    53   ar
    63    54    55   ar
    64    61    53    1
    65    53    58   ar
    66    55    56   ar
    67    58    57   ar
    68    56    57   ar
    69    56    66    1
    70    68    67    1
    71    57    60    1
    72    67    66    1
    73    67    69    1
