@<TRIPOS>MOLECULE
mol_data/noopt/geoms/mol2/6ll6ll.out
 36 37 0 0 0
SMALL
GASTEIGER

@<TRIPOS>ATOM
      1 C          -4.5775   -2.0270    0.0001 C.ar    1  LIG1        0.2152
      2 C          -3.1706   -2.0270    0.0001 C.ar    1  LIG1        0.0035
      3 C          -2.5039   -0.8004    0.0001 C.ar    1  LIG1       -0.0128
      4 C          -3.2580    0.3743   -0.0001 C.ar    1  LIG1        0.1464
      5 C          -4.6612    0.2715   -0.0003 C.ar    1  LIG1        0.1215
      6 N          -5.3207   -0.9034   -0.0001 N.ar    1  LIG1       -0.2090
      7 H          -1.4054   -0.7607   -0.0009 H       1  LIG1        0.0656
      8 H          -2.5135   -3.1487    0.0004 H       1  LIG1        0.0672
      9 O          -5.2431   -3.1437    0.0002 O.3     1  LIG1       -0.4796
     10 C          -6.6454   -2.8635    0.0002 C.3     1  LIG1        0.0804
     11 H          -7.1928   -3.7829    0.0001 H       1  LIG1        0.0660
     12 H          -6.8964   -2.2991    0.8739 H       1  LIG1        0.0660
     13 H          -6.8963   -2.2990   -0.8734 H       1  LIG1        0.0660
     14 O          -2.6846    1.5410   -0.0003 O.3     1  LIG1       -0.4930
     15 C          -1.2643    1.3748   -0.0004 C.3     1  LIG1        0.0789
     16 H          -0.7927    2.3353   -0.0008 H       1  LIG1        0.0660
     17 H          -0.9685    0.8326    0.8734 H       1  LIG1        0.0660
     18 H          -0.9687    0.8321   -0.8739 H       1  LIG1        0.0660
     19 C          -6.8088    1.2233   -0.0003 C.ar    1  LIG1        0.2242
     20 C          -5.4065    1.3366   -0.0004 C.ar    1  LIG1        0.0690
     21 C          -4.8408    2.6129   -0.0003 C.ar    1  LIG1       -0.0040
     22 C          -5.6871    3.7231   -0.0003 C.ar    1  LIG1        0.1390
     23 C          -7.0774    3.5076   -0.0004 C.ar    1  LIG1        0.0730
     24 N          -7.6401    2.2834   -0.0003 N.ar    1  LIG1       -0.2171
     25 H          -3.7491    2.7410   -0.0014 H       1  LIG1        0.0663
     26 H          -7.9061    4.5092   -0.0003 H       1  LIG1        0.0868
     27 O          -7.3823    0.0566   -0.0003 O.3     1  LIG1       -0.4792
     28 C          -8.8026    0.2229   -0.0004 C.3     1  LIG1        0.0804
     29 H          -9.2743   -0.7375   -0.0005 H       1  LIG1        0.0660
     30 H          -9.0983    0.7653    0.8734 H       1  LIG1        0.0660
     31 H          -9.0982    0.7655   -0.8739 H       1  LIG1        0.0660
     32 O          -5.2095    4.9322   -0.0004 O.3     1  LIG1       -0.4936
     33 C          -3.7804    4.8809   -0.0005 C.3     1  LIG1        0.0789
     34 H          -3.3877    5.8763   -0.0007 H       1  LIG1        0.0660
     35 H          -3.4420    4.3642    0.8733 H       1  LIG1        0.0660
     36 H          -3.4421    4.3639   -0.8740 H       1  LIG1        0.0660
@<TRIPOS>BOND
     1    36    33    1
     2    18    15    1
     3    31    28    1
     4    13    10    1
     5    25    21    1
     6     7     3    1
     7    16    15    1
     8    34    33    1
     9    29    28    1
    10    33    32    1
    11    33    35    1
    12    15    14    1
    13    15    17    1
    14    20     5    1
    15    20    19   ar
    16    20    21   ar
    17    23    24   ar
    18    23    26    1
    19    23    22   ar
    20    32    22    1
    21    28    27    1
    22    28    30    1
    23    14     4    1
    24     5     4   ar
    25     5     6   ar
    26    19    27    1
    27    19    24   ar
    28    21    22   ar
    29     4     3   ar
    30     6     1   ar
    31    11    10    1
    32     1     2   ar
    33     1     9    1
    34     2     3   ar
    35     2     8    1
    36    10     9    1
    37    10    12    1
