@<TRIPOS>MOLECULE
mol_data/noopt/geoms/mol2/6ll6ll6ll.out
 53 55 0 0 0
SMALL
GASTEIGER

@<TRIPOS>ATOM
      1 C          -4.5775   -2.0270    0.0001 C.ar    1  LIG1        0.2152
      2 C          -3.1706   -2.0270    0.0001 C.ar    1  LIG1        0.0035
      3 C          -2.5039   -0.8004    0.0001 C.ar    1  LIG1       -0.0128
      4 C          -3.2580    0.3743   -0.0001 C.ar    1  LIG1        0.1464
      5 C          -4.6612    0.2715   -0.0003 C.ar    1  LIG1        0.1215
      6 N          -5.3207   -0.9034   -0.0001 N.ar    1  LIG1       -0.2090
      7 H          -1.4054   -0.7607   -0.0009 H       1  LIG1        0.0656
      8 H          -2.5135   -3.1487    0.0004 H       1  LIG1        0.0672
      9 O          -5.2431   -3.1437    0.0002 O.3     1  LIG1       -0.4796
     10 C          -6.6454   -2.8635    0.0002 C.3     1  LIG1        0.0804
     11 H          -7.1928   -3.7829    0.0001 H       1  LIG1        0.0660
     12 H          -6.8964   -2.2991    0.8739 H       1  LIG1        0.0660
     13 H          -6.8963   -2.2990   -0.8734 H       1  LIG1        0.0660
     14 O          -2.6846    1.5410   -0.0003 O.3     1  LIG1       -0.4930
     15 C          -1.2643    1.3748   -0.0004 C.3     1  LIG1        0.0789
     16 H          -0.7927    2.3353   -0.0008 H       1  LIG1        0.0660
     17 H          -0.9685    0.8326    0.8734 H       1  LIG1        0.0660
     18 H          -0.9687    0.8321   -0.8739 H       1  LIG1        0.0660
     19 C          -6.8088    1.2233   -0.0003 C.ar    1  LIG1        0.2248
     20 C          -5.4065    1.3366   -0.0004 C.ar    1  LIG1        0.0690
     21 C          -4.8408    2.6129   -0.0003 C.ar    1  LIG1       -0.0034
     22 C          -5.6871    3.7231   -0.0003 C.ar    1  LIG1        0.1470
     23 C          -7.0774    3.5076   -0.0004 C.ar    1  LIG1        0.1215
     24 N          -7.6401    2.2834   -0.0003 N.ar    1  LIG1       -0.2085
     25 H          -3.7491    2.7410   -0.0014 H       1  LIG1        0.0663
     26 O          -7.3823    0.0566   -0.0003 O.3     1  LIG1       -0.4792
     27 C          -8.8026    0.2229   -0.0004 C.3     1  LIG1        0.0804
     28 H          -9.2743   -0.7375   -0.0005 H       1  LIG1        0.0660
     29 H          -9.0983    0.7653    0.8734 H       1  LIG1        0.0660
     30 H          -9.0982    0.7655   -0.8739 H       1  LIG1        0.0660
     31 O          -5.2095    4.9322   -0.0004 O.3     1  LIG1       -0.4929
     32 C          -3.7804    4.8809   -0.0005 C.3     1  LIG1        0.0789
     33 H          -3.3877    5.8763   -0.0007 H       1  LIG1        0.0660
     34 H          -3.4420    4.3642    0.8733 H       1  LIG1        0.0660
     35 H          -3.4421    4.3639   -0.8740 H       1  LIG1        0.0660
     36 C          -9.2948    4.2833   -0.0001 C.ar    1  LIG1        0.2242
     37 C          -7.9061    4.5092   -0.0003 C.ar    1  LIG1        0.0690
     38 C          -7.4450    5.8270   -0.0001 C.ar    1  LIG1       -0.0040
     39 C          -8.3780    6.8653    0.0002 C.ar    1  LIG1        0.1390
     40 C          -9.7465    6.5385    0.0002 C.ar    1  LIG1        0.0730
     41 N         -10.2087    5.2730    0.0002 N.ar    1  LIG1       -0.2171
     42 H          -6.3672    6.0425   -0.0012 H       1  LIG1        0.0663
     43 H         -10.6531    7.4701    0.0005 H       1  LIG1        0.0868
     44 O          -9.7724    3.0742   -0.0002 O.3     1  LIG1       -0.4792
     45 C         -11.2015    3.1256   -0.0003 C.3     1  LIG1        0.0804
     46 H         -11.5942    2.1302   -0.0005 H       1  LIG1        0.0660
     47 H         -11.5399    3.6423    0.8735 H       1  LIG1        0.0660
     48 H         -11.5398    3.6426   -0.8738 H       1  LIG1        0.0660
     49 O          -7.9993    8.1090    0.0002 O.3     1  LIG1       -0.4936
     50 C          -6.5708    8.1730    0.0001 C.3     1  LIG1        0.0789
     51 H          -6.2596    9.1967   -0.0000 H       1  LIG1        0.0660
     52 H          -6.1918    7.6852    0.8739 H       1  LIG1        0.0660
     53 H          -6.1919    7.6849   -0.8734 H       1  LIG1        0.0660
@<TRIPOS>BOND
     1    35    32    1
     2    18    15    1
     3    30    27    1
     4    48    45    1
     5    53    50    1
     6    13    10    1
     7    25    21    1
     8    42    38    1
     9     7     3    1
    10    16    15    1
    11    33    32    1
    12    28    27    1
    13    46    45    1
    14    32    31    1
    15    32    34    1
    16    15    14    1
    17    15    17    1
    18    20     5    1
    19    20    19   ar
    20    20    21   ar
    21    23    24   ar
    22    23    37    1
    23    23    22   ar
    24    31    22    1
    25    27    26    1
    26    27    29    1
    27     5     4   ar
    28     5     6   ar
    29    14     4    1
    30    19    26    1
    31    19    24   ar
    32    21    22   ar
    33    37    36   ar
    34    37    38   ar
    35    45    44    1
    36    45    47    1
    37    44    36    1
    38     4     3   ar
    39     6     1   ar
    40    36    41   ar
    41    38    39   ar
    42    51    50    1
    43    11    10    1
    44     1     2   ar
    45     1     9    1
    46     2     3   ar
    47     2     8    1
    48    50    49    1
    49    50    52    1
    50    41    40   ar
    51    40    39   ar
    52    40    43    1
    53    10     9    1
    54    10    12    1
    55    39    49    1
