@<TRIPOS>MOLECULE
mol_data/noopt/geoms/mol2/812-13-.out
 23 25 0 0 0
SMALL
GASTEIGER

@<TRIPOS>ATOM
      1 C          -0.0089   -0.0179   -0.0000 C.ar    1  LIG1        0.1605
      2 N           1.3522   -0.0179   -0.0000 N.ar    1  LIG1       -0.1338
      3 C           1.1968    2.3931   -0.0000 C.ar    1  LIG1        0.2381
      4 N          -0.8254    1.0712   -0.0000 N.ar    1  LIG1       -0.1338
      5 N           1.9401    1.1968   -0.0000 N.ar    1  LIG1       -0.1226
      6 N          -0.2061    2.2702   -0.0001 N.ar    1  LIG1       -0.1226
      7 H          -0.5904   -1.1806   -0.0000 H       1  LIG1        0.1085
      8 C           1.7783    3.5558    0.0000 C.ar    1  LIG1        0.1760
      9 C           1.3529    4.8681    0.0000 C.ar    1  LIG1       -0.0120
     10 C           2.5448    5.6905    0.0000 C.ar    1  LIG1       -0.0137
     11 C           3.6199    4.8258    0.0001 C.ar    1  LIG1        0.1519
     12 O           3.1729    3.5040    0.0002 O.2     1  LIG1       -0.4501
     13 H           0.1296    5.3079   -0.0001 H       1  LIG1        0.0657
     14 H           2.5684    6.9903    0.0000 H       1  LIG1        0.0656
     15 C           4.9134    4.9561    0.0001 C.ar    1  LIG1        0.0821
     16 C           5.6872    6.0738    0.0005 C.ar    1  LIG1       -0.0334
     17 C           7.0542    5.6475   -0.0009 C.ar    1  LIG1       -0.0437
     18 C           7.0557    4.2880   -0.0004 C.ar    1  LIG1        0.0023
     19 N           5.7471    3.8607   -0.0003 N.ar    1  LIG1       -0.3583
     20 H           5.4512    2.9117    0.0001 H       1  LIG1        0.1654
     21 H           8.0458    3.4456   -0.0011 H       1  LIG1        0.0807
     22 H           5.2609    7.3019    0.0006 H       1  LIG1        0.0640
     23 H           8.1030    6.4156   -0.0019 H       1  LIG1        0.0633
@<TRIPOS>BOND
     1    23    17    1
     2    21    18    1
     3    17    18   ar
     4    17    16   ar
     5    18    19   ar
     6    19    15   ar
     7    19    20    1
     8     6     4   ar
     9     6     3   ar
    10    13     9    1
    11     1     7    1
    12     1     4   ar
    13     1     2   ar
    14     8     3    1
    15     8     9   ar
    16     8    12   ar
    17     5     3   ar
    18     5     2   ar
    19    10    14    1
    20    10     9   ar
    21    10    11   ar
    22    15    11    1
    23    15    16   ar
    24    11    12   ar
    25    16    22    1
