@<TRIPOS>MOLECULE
mol_data/noopt/geoms/mol2/812-5-8-.out
 28 31 0 0 0
SMALL
GASTEIGER

@<TRIPOS>ATOM
      1 C          -0.0089   -0.0179   -0.0000 C.ar    1  LIG1        0.1605
      2 N           1.3522   -0.0179   -0.0000 N.ar    1  LIG1       -0.1338
      3 C           1.1968    2.3931   -0.0000 C.ar    1  LIG1        0.2381
      4 N          -0.8254    1.0712   -0.0000 N.ar    1  LIG1       -0.1338
      5 N           1.9401    1.1968   -0.0000 N.ar    1  LIG1       -0.1226
      6 N          -0.2061    2.2702   -0.0001 N.ar    1  LIG1       -0.1226
      7 H          -0.5904   -1.1806   -0.0000 H       1  LIG1        0.1085
      8 C           1.7783    3.5558    0.0000 C.ar    1  LIG1        0.1760
      9 C           1.3529    4.8681    0.0000 C.ar    1  LIG1       -0.0120
     10 C           2.5448    5.6905    0.0000 C.ar    1  LIG1       -0.0146
     11 C           3.6199    4.8258    0.0001 C.ar    1  LIG1        0.1424
     12 O           3.1729    3.5040    0.0002 O.2     1  LIG1       -0.4511
     13 H           0.1296    5.3079   -0.0001 H       1  LIG1        0.0657
     14 H           2.5684    6.9903    0.0000 H       1  LIG1        0.0656
     15 C           4.9134    4.9561    0.0001 C.ar    1  LIG1        0.0551
     16 C           5.6004    6.1497    0.0002 C.ar    1  LIG1       -0.0433
     17 C           7.0172    5.9404    0.0009 C.ar    1  LIG1       -0.0431
     18 C           7.3297    4.5992    0.0004 C.ar    1  LIG1        0.0605
     19 S           5.9547    3.6477   -0.0000 S.2     1  LIG1       -0.0820
     20 H           5.0568    7.3306   -0.0001 H       1  LIG1        0.0630
     21 H           7.8790    6.9137    0.0018 H       1  LIG1        0.0630
     22 C           8.5302    4.1003    0.0003 C.ar    1  LIG1        0.2099
     23 N           9.5596    4.9908    0.0002 N.ar    1  LIG1       -0.1253
     24 C          11.0195    3.0658   -0.0001 C.ar    1  LIG1        0.1605
     25 N           8.6253    2.7425    0.0002 N.ar    1  LIG1       -0.1253
     26 N          10.7989    4.4568    0.0000 N.ar    1  LIG1       -0.1339
     27 N           9.8781    2.2409    0.0001 N.ar    1  LIG1       -0.1339
     28 H          12.2199    2.5669   -0.0002 H       1  LIG1        0.1085
@<TRIPOS>BOND
     1    28    24    1
     2     6     3   ar
     3     6     4   ar
     4    20    16    1
     5    24    26   ar
     6    24    27   ar
     7    13     9    1
     8    19    15   ar
     9    19    18   ar
    10     1     2   ar
    11     1     4   ar
    12     1     7    1
    13     8     3    1
    14     8     9   ar
    15     8    12   ar
    16     2     5   ar
    17     3     5   ar
    18    10    14    1
    19    10     9   ar
    20    10    11   ar
    21    26    23   ar
    22    15    11    1
    23    15    16   ar
    24    11    12   ar
    25    27    25   ar
    26    16    17   ar
    27    23    22   ar
    28    25    22   ar
    29    22    18    1
    30    18    17   ar
    31    17    21    1
