@<TRIPOS>MOLECULE
mol_data/noopt/geoms/mol2/812-12-.out
 22 24 0 0 0
SMALL
GASTEIGER

@<TRIPOS>ATOM
      1 C          -0.0089   -0.0179   -0.0000 C.ar    1  LIG1        0.1605
      2 N           1.3522   -0.0179   -0.0000 N.ar    1  LIG1       -0.1338
      3 C           1.1968    2.3931   -0.0000 C.ar    1  LIG1        0.2381
      4 N          -0.8254    1.0712   -0.0000 N.ar    1  LIG1       -0.1338
      5 N           1.9401    1.1968   -0.0000 N.ar    1  LIG1       -0.1226
      6 N          -0.2061    2.2702   -0.0001 N.ar    1  LIG1       -0.1226
      7 H          -0.5904   -1.1806   -0.0000 H       1  LIG1        0.1085
      8 C           1.7783    3.5558    0.0000 C.ar    1  LIG1        0.1761
      9 C           1.3529    4.8681    0.0000 C.ar    1  LIG1       -0.0119
     10 C           2.5448    5.6905    0.0000 C.ar    1  LIG1       -0.0121
     11 C           3.6199    4.8258    0.0001 C.ar    1  LIG1        0.1707
     12 O           3.1729    3.5040    0.0002 O.2     1  LIG1       -0.4485
     13 H           0.1296    5.3079   -0.0001 H       1  LIG1        0.0657
     14 H           2.5684    6.9903    0.0000 H       1  LIG1        0.0657
     15 C           4.9133    4.9561    0.0001 C.ar    1  LIG1        0.1697
     16 C           5.7948    6.0173    0.0001 C.ar    1  LIG1       -0.0128
     17 C           7.1271    5.4499    0.0000 C.ar    1  LIG1       -0.0232
     18 C           6.9713    4.0790    0.0001 C.ar    1  LIG1        0.0927
     19 O           5.6153    3.7499    0.0002 O.2     1  LIG1       -0.4598
     20 H           7.7730    3.0557    0.0001 H       1  LIG1        0.1029
     21 H           5.5123    7.2862   -0.0000 H       1  LIG1        0.0656
     22 H           8.2381    6.1249    0.0000 H       1  LIG1        0.0649
@<TRIPOS>BOND
     1     6     3   ar
     2     6     4   ar
     3    13     9    1
     4    21    16    1
     5     2     5   ar
     6     2     1   ar
     7     3     5   ar
     8     3     8    1
     9     4     1   ar
    10     7     1    1
    11     8     9   ar
    12     8    12   ar
    13    10    14    1
    14    10     9   ar
    15    10    11   ar
    16    22    17    1
    17    17    16   ar
    18    17    18   ar
    19    15    16   ar
    20    15    11    1
    21    15    19   ar
    22    20    18    1
    23    11    12   ar
    24    18    19   ar
