@<TRIPOS>MOLECULE
mol_data/noopt/geoms/mol2/812-4-13-.out
 33 36 0 0 0
SMALL
GASTEIGER

@<TRIPOS>ATOM
      1 C          -0.0089   -0.0179   -0.0000 C.ar    1  LIG1        0.1605
      2 N           1.3522   -0.0179   -0.0000 N.ar    1  LIG1       -0.1338
      3 C           1.1968    2.3931   -0.0000 C.ar    1  LIG1        0.2381
      4 N          -0.8254    1.0712   -0.0000 N.ar    1  LIG1       -0.1338
      5 N           1.9401    1.1968   -0.0000 N.ar    1  LIG1       -0.1226
      6 N          -0.2061    2.2702   -0.0001 N.ar    1  LIG1       -0.1226
      7 H          -0.5904   -1.1806   -0.0000 H       1  LIG1        0.1085
      8 C           1.7783    3.5558    0.0000 C.ar    1  LIG1        0.1760
      9 C           1.3529    4.8681    0.0000 C.ar    1  LIG1       -0.0120
     10 C           2.5448    5.6905    0.0000 C.ar    1  LIG1       -0.0151
     11 C           3.6199    4.8258    0.0001 C.ar    1  LIG1        0.1358
     12 O           3.1729    3.5040    0.0002 O.2     1  LIG1       -0.4516
     13 H           0.1296    5.3079   -0.0001 H       1  LIG1        0.0657
     14 H           2.5684    6.9903    0.0000 H       1  LIG1        0.0656
     15 C           5.4897    6.2428   -0.0007 C.ar    1  LIG1       -0.0505
     16 C           6.8952    6.3305   -0.0022 C.ar    1  LIG1       -0.0520
     17 C           4.9133    4.9561    0.0001 C.ar    1  LIG1        0.0173
     18 C           7.6936    5.1889   -0.0024 C.ar    1  LIG1       -0.0017
     19 H           7.3607    7.3136   -0.0031 H       1  LIG1        0.0624
     20 C           5.7099    3.8161   -0.0001 C.ar    1  LIG1       -0.0505
     21 C           7.1044    3.9240   -0.0012 C.ar    1  LIG1       -0.0520
     22 H           5.2415    2.8351    0.0004 H       1  LIG1        0.0625
     23 H           4.7980    7.3435   -0.0004 H       1  LIG1        0.0625
     24 H           7.8440    2.8548   -0.0015 H       1  LIG1        0.0624
     25 C           8.9883    5.3067   -0.0037 C.ar    1  LIG1        0.0465
     26 C           9.7729    6.4168   -0.0041 C.ar    1  LIG1       -0.0364
     27 C          11.1357    5.9773   -0.0068 C.ar    1  LIG1       -0.0438
     28 C          11.1240    4.6179   -0.0062 C.ar    1  LIG1        0.0022
     29 N           9.8113    4.2032   -0.0048 N.ar    1  LIG1       -0.3607
     30 H           9.5062    3.2572   -0.0040 H       1  LIG1        0.1653
     31 H          12.1059    3.7659   -0.0078 H       1  LIG1        0.0807
     32 H           9.3585    7.6490   -0.0037 H       1  LIG1        0.0639
     33 H          12.1919    6.7352   -0.0090 H       1  LIG1        0.0633
@<TRIPOS>BOND
     1    33    27    1
     2    31    28    1
     3    27    28   ar
     4    27    26   ar
     5    28    29   ar
     6    29    30    1
     7    29    25   ar
     8    26    32    1
     9    26    25   ar
    10    25    18    1
    11    19    16    1
    12    18    16   ar
    13    18    21   ar
    14    16    15   ar
    15    24    21    1
    16    21    20   ar
    17    15    23    1
    18    15    17   ar
    19    20    17   ar
    20    20    22    1
    21     6     4   ar
    22     6     3   ar
    23    13     9    1
    24     1     7    1
    25     1     4   ar
    26     1     2   ar
    27     8     3    1
    28     8     9   ar
    29     8    12   ar
    30     5     3   ar
    31     5     2   ar
    32    10    14    1
    33    10     9   ar
    34    10    11   ar
    35    17    11    1
    36    11    12   ar
