@<TRIPOS>MOLECULE
mol_data/noopt/geoms/mol2/812-124-.out
 32 35 0 0 0
SMALL
GASTEIGER

@<TRIPOS>ATOM
      1 C          -0.0089   -0.0179   -0.0000 C.ar    1  LIG1        0.1605
      2 N           1.3522   -0.0179   -0.0000 N.ar    1  LIG1       -0.1338
      3 C           1.1968    2.3931   -0.0000 C.ar    1  LIG1        0.2381
      4 N          -0.8254    1.0712   -0.0000 N.ar    1  LIG1       -0.1338
      5 N           1.9401    1.1968   -0.0000 N.ar    1  LIG1       -0.1226
      6 N          -0.2061    2.2702   -0.0001 N.ar    1  LIG1       -0.1226
      7 H          -0.5904   -1.1806   -0.0000 H       1  LIG1        0.1085
      8 C           1.7783    3.5558    0.0000 C.ar    1  LIG1        0.1761
      9 C           1.3529    4.8681    0.0000 C.ar    1  LIG1       -0.0119
     10 C           2.5448    5.6905    0.0000 C.ar    1  LIG1       -0.0121
     11 C           3.6199    4.8258    0.0001 C.ar    1  LIG1        0.1707
     12 O           3.1729    3.5040    0.0002 O.2     1  LIG1       -0.4485
     13 H           0.1296    5.3079   -0.0001 H       1  LIG1        0.0657
     14 H           2.5684    6.9903    0.0000 H       1  LIG1        0.0657
     15 C           4.9133    4.9561    0.0001 C.ar    1  LIG1        0.1706
     16 C           5.9888    4.0921    0.0000 C.ar    1  LIG1       -0.0122
     17 C           7.1811    4.9139    0.0000 C.ar    1  LIG1       -0.0151
     18 C           6.7549    6.2262   -0.0001 C.ar    1  LIG1        0.1358
     19 O           5.3606    6.2781   -0.0002 O.2     1  LIG1       -0.4517
     20 H           5.9651    2.7923    0.0001 H       1  LIG1        0.0657
     21 H           8.4044    4.4740   -0.0000 H       1  LIG1        0.0656
     22 C           6.5573    8.5639   -0.0008 C.ar    1  LIG1       -0.0511
     23 C           7.2347    9.7985   -0.0024 C.ar    1  LIG1       -0.0611
     24 C           7.3364    7.3888   -0.0001 C.ar    1  LIG1        0.0173
     25 C           8.6263    9.8627   -0.0025 C.ar    1  LIG1       -0.0617
     26 H           6.6529   10.7175   -0.0032 H       1  LIG1        0.0618
     27 C           8.7257    7.4523   -0.0002 C.ar    1  LIG1       -0.0511
     28 C           9.3802    8.6885   -0.0014 C.ar    1  LIG1       -0.0611
     29 H           9.3042    6.5321    0.0003 H       1  LIG1        0.0625
     30 H           9.2191   11.0198   -0.0038 H       1  LIG1        0.0618
     31 H           5.2573    8.5680   -0.0005 H       1  LIG1        0.0625
     32 H          10.6791    8.7417   -0.0017 H       1  LIG1        0.0618
@<TRIPOS>BOND
     1    30    25    1
     2    26    23    1
     3    25    23   ar
     4    25    28   ar
     5    23    22   ar
     6    32    28    1
     7    28    27   ar
     8    22    31    1
     9    22    24   ar
    10    27    24   ar
    11    27    29    1
    12    19    18   ar
    13    19    15   ar
    14     6     4   ar
    15     6     3   ar
    16    24    18    1
    17    18    17   ar
    18    13     9    1
    19    21    17    1
    20     1     7    1
    21     1     4   ar
    22     1     2   ar
    23     8     3    1
    24     8     9   ar
    25     8    12   ar
    26     5     3   ar
    27     5     2   ar
    28    10    14    1
    29    10     9   ar
    30    10    11   ar
    31    17    16   ar
    32    16    15   ar
    33    16    20    1
    34    15    11    1
    35    11    12   ar
