@<TRIPOS>MOLECULE
mol_data/noopt/geoms/mol2/812-8.out
 21 23 0 0 0
SMALL
GASTEIGER

@<TRIPOS>ATOM
      1 C          -0.0089   -0.0179   -0.0000 C.ar    1  LIG1        0.1605
      2 N           1.3522   -0.0179   -0.0000 N.ar    1  LIG1       -0.1338
      3 C           1.1968    2.3931   -0.0000 C.ar    1  LIG1        0.2381
      4 N          -0.8254    1.0712   -0.0000 N.ar    1  LIG1       -0.1338
      5 N           1.9401    1.1968   -0.0000 N.ar    1  LIG1       -0.1226
      6 N          -0.2061    2.2702   -0.0001 N.ar    1  LIG1       -0.1226
      7 H          -0.5904   -1.1806   -0.0000 H       1  LIG1        0.1085
      8 C           1.7783    3.5558    0.0000 C.ar    1  LIG1        0.1761
      9 C           1.3529    4.8681    0.0000 C.ar    1  LIG1       -0.0119
     10 C           2.5448    5.6905    0.0000 C.ar    1  LIG1       -0.0119
     11 C           3.6199    4.8258    0.0001 C.ar    1  LIG1        0.1761
     12 O           3.1729    3.5040    0.0002 O.2     1  LIG1       -0.4483
     13 H           0.1296    5.3079   -0.0001 H       1  LIG1        0.0657
     14 H           2.5684    6.9903    0.0000 H       1  LIG1        0.0657
     15 C           4.9134    4.9561    0.0001 C.ar    1  LIG1        0.2381
     16 N           5.6412    3.8059    0.0000 N.ar    1  LIG1       -0.1226
     17 C           7.5954    5.2265    0.0000 C.ar    1  LIG1        0.1605
     18 N           5.3971    6.2284    0.0000 N.ar    1  LIG1       -0.1226
     19 N           6.9820    3.9587    0.0000 N.ar    1  LIG1       -0.1338
     20 N           6.7414    6.3462   -0.0001 N.ar    1  LIG1       -0.1338
     21 H           8.8889    5.3568   -0.0000 H       1  LIG1        0.1085
@<TRIPOS>BOND
     1     6     4   ar
     2     6     3   ar
     3    20    17   ar
     4    20    18   ar
     5    13     9    1
     6    21    17    1
     7     1     7    1
     8     1     4   ar
     9     1     2   ar
    10     8     3    1
    11     8     9   ar
    12     8    12   ar
    13     5     3   ar
    14     5     2   ar
    15    17    19   ar
    16    10    14    1
    17    10     9   ar
    18    10    11   ar
    19    19    16   ar
    20    16    15   ar
    21    18    15   ar
    22    15    11    1
    23    11    12   ar
