@<TRIPOS>MOLECULE
mol_data/noopt/geoms/mol2/812-12-8.out
 28 31 0 0 0
SMALL
GASTEIGER

@<TRIPOS>ATOM
      1 C          -0.0089   -0.0179   -0.0000 C.ar    1  LIG1        0.1605
      2 N           1.3522   -0.0179   -0.0000 N.ar    1  LIG1       -0.1338
      3 C           1.1968    2.3931   -0.0000 C.ar    1  LIG1        0.2381
      4 N          -0.8254    1.0712   -0.0000 N.ar    1  LIG1       -0.1338
      5 N           1.9401    1.1968   -0.0000 N.ar    1  LIG1       -0.1226
      6 N          -0.2061    2.2702   -0.0001 N.ar    1  LIG1       -0.1226
      7 H          -0.5904   -1.1806   -0.0000 H       1  LIG1        0.1085
      8 C           1.7783    3.5558    0.0000 C.ar    1  LIG1        0.1761
      9 C           1.3529    4.8681    0.0000 C.ar    1  LIG1       -0.0119
     10 C           2.5448    5.6905    0.0000 C.ar    1  LIG1       -0.0121
     11 C           3.6199    4.8258    0.0001 C.ar    1  LIG1        0.1707
     12 O           3.1729    3.5040    0.0002 O.2     1  LIG1       -0.4485
     13 H           0.1296    5.3079   -0.0001 H       1  LIG1        0.0657
     14 H           2.5684    6.9903    0.0000 H       1  LIG1        0.0657
     15 C           4.9133    4.9561    0.0001 C.ar    1  LIG1        0.1707
     16 C           5.7948    6.0173    0.0001 C.ar    1  LIG1       -0.0121
     17 C           7.1271    5.4499    0.0000 C.ar    1  LIG1       -0.0119
     18 C           6.9713    4.0790    0.0001 C.ar    1  LIG1        0.1761
     19 O           5.6153    3.7499    0.0002 O.2     1  LIG1       -0.4485
     20 H           5.5123    7.2862   -0.0000 H       1  LIG1        0.0657
     21 H           8.2381    6.1249    0.0000 H       1  LIG1        0.0657
     22 C           7.7730    3.0557    0.0001 C.ar    1  LIG1        0.2381
     23 N           7.1903    1.8256    0.0000 N.ar    1  LIG1       -0.1226
     24 C           9.4356    0.9338   -0.0000 C.ar    1  LIG1        0.1605
     25 N           9.1068    3.3272    0.0000 N.ar    1  LIG1       -0.1226
     26 N           8.0363    0.7743    0.0000 N.ar    1  LIG1       -0.1338
     27 N           9.9252    2.2542   -0.0001 N.ar    1  LIG1       -0.1338
     28 H          10.2374   -0.0896   -0.0001 H       1  LIG1        0.1085
@<TRIPOS>BOND
     1     6     3   ar
     2     6     4   ar
     3    27    24   ar
     4    27    25   ar
     5    28    24    1
     6    13     9    1
     7    24    26   ar
     8    20    16    1
     9     1     2   ar
    10     1     4   ar
    11     1     7    1
    12     8     3    1
    13     8     9   ar
    14     8    12   ar
    15     2     5   ar
    16     3     5   ar
    17    26    23   ar
    18    10    14    1
    19    10     9   ar
    20    10    11   ar
    21    21    17    1
    22    17    16   ar
    23    17    18   ar
    24    23    22   ar
    25    25    22   ar
    26    15    16   ar
    27    15    11    1
    28    15    19   ar
    29    22    18    1
    30    11    12   ar
    31    18    19   ar
