@<TRIPOS>MOLECULE
mol_data/noopt/geoms/mol2/812-1212-.out
 29 32 0 0 0
SMALL
GASTEIGER

@<TRIPOS>ATOM
      1 C          -0.0089   -0.0179   -0.0000 C.ar    1  LIG1        0.1605
      2 N           1.3522   -0.0179   -0.0000 N.ar    1  LIG1       -0.1338
      3 C           1.1968    2.3931   -0.0000 C.ar    1  LIG1        0.2381
      4 N          -0.8254    1.0712   -0.0000 N.ar    1  LIG1       -0.1338
      5 N           1.9401    1.1968   -0.0000 N.ar    1  LIG1       -0.1226
      6 N          -0.2061    2.2702   -0.0001 N.ar    1  LIG1       -0.1226
      7 H          -0.5904   -1.1806   -0.0000 H       1  LIG1        0.1085
      8 C           1.7783    3.5558    0.0000 C.ar    1  LIG1        0.1761
      9 C           1.3529    4.8681    0.0000 C.ar    1  LIG1       -0.0119
     10 C           2.5448    5.6905    0.0000 C.ar    1  LIG1       -0.0121
     11 C           3.6199    4.8258    0.0001 C.ar    1  LIG1        0.1707
     12 O           3.1729    3.5040    0.0002 O.2     1  LIG1       -0.4485
     13 H           0.1296    5.3079   -0.0001 H       1  LIG1        0.0657
     14 H           2.5684    6.9903    0.0000 H       1  LIG1        0.0657
     15 C           4.9133    4.9561    0.0001 C.ar    1  LIG1        0.1707
     16 C           5.9888    4.0921    0.0000 C.ar    1  LIG1       -0.0121
     17 C           7.1811    4.9139    0.0000 C.ar    1  LIG1       -0.0121
     18 C           6.7549    6.2262   -0.0001 C.ar    1  LIG1        0.1707
     19 O           5.3606    6.2781   -0.0002 O.2     1  LIG1       -0.4486
     20 H           5.9651    2.7923    0.0001 H       1  LIG1        0.0657
     21 H           8.4044    4.4740   -0.0000 H       1  LIG1        0.0657
     22 C           7.3364    7.3888   -0.0001 C.ar    1  LIG1        0.1697
     23 C           6.9110    8.7011   -0.0001 C.ar    1  LIG1       -0.0128
     24 C           8.1029    9.5235   -0.0001 C.ar    1  LIG1       -0.0232
     25 C           9.1780    8.6588   -0.0000 C.ar    1  LIG1        0.0927
     26 O           8.7311    7.3371    0.0001 O.2     1  LIG1       -0.4598
     27 H          10.4715    8.7892   -0.0001 H       1  LIG1        0.1029
     28 H           5.6877    9.1410   -0.0002 H       1  LIG1        0.0656
     29 H           8.1265   10.8233   -0.0001 H       1  LIG1        0.0649
@<TRIPOS>BOND
     1    19    18   ar
     2    19    15   ar
     3    28    23    1
     4    29    24    1
     5    24    23   ar
     6    24    25   ar
     7     6     4   ar
     8     6     3   ar
     9    22    23   ar
    10    22    18    1
    11    22    26   ar
    12    18    17   ar
    13    27    25    1
    14    13     9    1
    15    25    26   ar
    16    21    17    1
    17     1     7    1
    18     1     4   ar
    19     1     2   ar
    20     8     3    1
    21     8     9   ar
    22     8    12   ar
    23     5     3   ar
    24     5     2   ar
    25    10    14    1
    26    10     9   ar
    27    10    11   ar
    28    17    16   ar
    29    16    15   ar
    30    16    20    1
    31    15    11    1
    32    11    12   ar
