@<TRIPOS>MOLECULE
mol_data/noopt/geoms/mol2/812-.out
 15 16 0 0 0
SMALL
GASTEIGER

@<TRIPOS>ATOM
      1 C          -0.0089   -0.0179   -0.0000 C.ar    1  LIG1        0.1605
      2 N           1.3522   -0.0179   -0.0000 N.ar    1  LIG1       -0.1338
      3 C           1.1968    2.3931   -0.0000 C.ar    1  LIG1        0.2380
      4 N          -0.8254    1.0712   -0.0000 N.ar    1  LIG1       -0.1338
      5 N           1.9401    1.1968   -0.0000 N.ar    1  LIG1       -0.1226
      6 N          -0.2061    2.2702   -0.0001 N.ar    1  LIG1       -0.1226
      7 H          -0.5904   -1.1806   -0.0000 H       1  LIG1        0.1085
      8 C           1.7783    3.5558    0.0000 C.ar    1  LIG1        0.1751
      9 C           1.3529    4.8681    0.0000 C.ar    1  LIG1       -0.0126
     10 C           2.5448    5.6905    0.0000 C.ar    1  LIG1       -0.0232
     11 C           3.6199    4.8258    0.0001 C.ar    1  LIG1        0.0927
     12 O           3.1729    3.5040    0.0002 O.2     1  LIG1       -0.4597
     13 H           4.9134    4.9561    0.0001 H       1  LIG1        0.1029
     14 H           0.1296    5.3079   -0.0001 H       1  LIG1        0.0656
     15 H           2.5684    6.9903    0.0000 H       1  LIG1        0.0649
@<TRIPOS>BOND
     1     6     3   ar
     2     6     4   ar
     3    14     9    1
     4     1     2   ar
     5     1     4   ar
     6     1     7    1
     7     2     5   ar
     8     3     5   ar
     9     3     8    1
    10     8     9   ar
    11     8    12   ar
    12    10    15    1
    13    10     9   ar
    14    10    11   ar
    15    13    11    1
    16    11    12   ar
