@<TRIPOS>MOLECULE
mol_data/noopt/geoms/mol2/812-12-5.out
 29 32 0 0 0
SMALL
GASTEIGER

@<TRIPOS>ATOM
      1 C          -0.0089   -0.0179   -0.0000 C.ar    1  LIG1        0.1605
      2 N           1.3522   -0.0179   -0.0000 N.ar    1  LIG1       -0.1338
      3 C           1.1968    2.3931   -0.0000 C.ar    1  LIG1        0.2381
      4 N          -0.8254    1.0712   -0.0000 N.ar    1  LIG1       -0.1338
      5 N           1.9401    1.1968   -0.0000 N.ar    1  LIG1       -0.1226
      6 N          -0.2061    2.2702   -0.0001 N.ar    1  LIG1       -0.1226
      7 H          -0.5904   -1.1806   -0.0000 H       1  LIG1        0.1085
      8 C           1.7783    3.5558    0.0000 C.ar    1  LIG1        0.1761
      9 C           1.3529    4.8681    0.0000 C.ar    1  LIG1       -0.0119
     10 C           2.5448    5.6905    0.0000 C.ar    1  LIG1       -0.0121
     11 C           3.6199    4.8258    0.0001 C.ar    1  LIG1        0.1707
     12 O           3.1729    3.5040    0.0002 O.2     1  LIG1       -0.4485
     13 H           0.1296    5.3079   -0.0001 H       1  LIG1        0.0657
     14 H           2.5684    6.9903    0.0000 H       1  LIG1        0.0657
     15 C           4.9133    4.9561    0.0001 C.ar    1  LIG1        0.1706
     16 C           5.7948    6.0173    0.0001 C.ar    1  LIG1       -0.0121
     17 C           7.1271    5.4499    0.0000 C.ar    1  LIG1       -0.0146
     18 C           6.9713    4.0790    0.0001 C.ar    1  LIG1        0.1424
     19 O           5.6153    3.7499    0.0002 O.2     1  LIG1       -0.4512
     20 H           5.5123    7.2862   -0.0000 H       1  LIG1        0.0657
     21 H           8.2381    6.1249    0.0000 H       1  LIG1        0.0656
     22 C           7.7730    3.0557    0.0001 C.ar    1  LIG1        0.0544
     23 C           7.3878    1.7334   -0.0003 C.ar    1  LIG1       -0.0440
     24 C           8.5199    0.8563   -0.0010 C.ar    1  LIG1       -0.0540
     25 C           9.7040    1.5597   -0.0003 C.ar    1  LIG1       -0.0236
     26 S           9.4380    3.2106    0.0004 S.2     1  LIG1       -0.0936
     27 H          10.8952    1.0392   -0.0001 H       1  LIG1        0.0693
     28 H           6.1595    1.3077   -0.0003 H       1  LIG1        0.0630
     29 H           8.4147   -0.4394   -0.0022 H       1  LIG1        0.0623
@<TRIPOS>BOND
     1    29    24    1
     2    24    23   ar
     3    24    25   ar
     4    23    28    1
     5    23    22   ar
     6    25    27    1
     7    25    26   ar
     8     6     3   ar
     9     6     4   ar
    10    13     9    1
    11    20    16    1
    12     1     2   ar
    13     1     4   ar
    14     1     7    1
    15     2     5   ar
    16     3     5   ar
    17     3     8    1
    18     8     9   ar
    19     8    12   ar
    20    10    14    1
    21    10     9   ar
    22    10    11   ar
    23    21    17    1
    24    17    16   ar
    25    17    18   ar
    26    15    16   ar
    27    15    11    1
    28    15    19   ar
    29    22    18    1
    30    22    26   ar
    31    11    12   ar
    32    18    19   ar
