@<TRIPOS>MOLECULE
mol_data/noopt/geoms/mol2/812-5-.out
 22 24 0 0 0
SMALL
GASTEIGER

@<TRIPOS>ATOM
      1 C          -0.0089   -0.0179   -0.0000 C.ar    1  LIG1        0.1605
      2 N           1.3522   -0.0179   -0.0000 N.ar    1  LIG1       -0.1338
      3 C           1.1968    2.3931   -0.0000 C.ar    1  LIG1        0.2381
      4 N          -0.8254    1.0712   -0.0000 N.ar    1  LIG1       -0.1338
      5 N           1.9401    1.1968   -0.0000 N.ar    1  LIG1       -0.1226
      6 N          -0.2061    2.2702   -0.0001 N.ar    1  LIG1       -0.1226
      7 H          -0.5904   -1.1806   -0.0000 H       1  LIG1        0.1085
      8 C           1.7783    3.5558    0.0000 C.ar    1  LIG1        0.1760
      9 C           1.3529    4.8681    0.0000 C.ar    1  LIG1       -0.0120
     10 C           2.5448    5.6905    0.0000 C.ar    1  LIG1       -0.0146
     11 C           3.6199    4.8258    0.0001 C.ar    1  LIG1        0.1424
     12 O           3.1729    3.5040    0.0002 O.2     1  LIG1       -0.4511
     13 H           0.1296    5.3079   -0.0001 H       1  LIG1        0.0657
     14 H           2.5684    6.9903    0.0000 H       1  LIG1        0.0656
     15 C           4.9134    4.9561    0.0001 C.ar    1  LIG1        0.0544
     16 C           5.6004    6.1497    0.0002 C.ar    1  LIG1       -0.0440
     17 C           7.0172    5.9404    0.0009 C.ar    1  LIG1       -0.0540
     18 C           7.3297    4.5992    0.0004 C.ar    1  LIG1       -0.0236
     19 S           5.9547    3.6477   -0.0000 S.2     1  LIG1       -0.0936
     20 H           8.5302    4.1003    0.0003 H       1  LIG1        0.0693
     21 H           5.0568    7.3306   -0.0001 H       1  LIG1        0.0630
     22 H           7.8790    6.9137    0.0018 H       1  LIG1        0.0623
@<TRIPOS>BOND
     1     6     3   ar
     2     6     4   ar
     3    21    16    1
     4    13     9    1
     5    19    15   ar
     6    19    18   ar
     7     2     5   ar
     8     2     1   ar
     9     3     5   ar
    10     3     8    1
    11     4     1   ar
    12     7     1    1
    13     8     9   ar
    14     8    12   ar
    15    10    14    1
    16    10     9   ar
    17    10    11   ar
    18    15    11    1
    19    15    16   ar
    20    11    12   ar
    21    16    17   ar
    22    20    18    1
    23    18    17   ar
    24    17    22    1
