@<TRIPOS>MOLECULE
mol_data/noopt/geoms/mol2/812.out
 15 16 0 0 0
SMALL
GASTEIGER

@<TRIPOS>ATOM
      1 C          -0.0089   -0.0179   -0.0000 C.ar    1  LIG1        0.1605
      2 N           1.3522   -0.0179   -0.0000 N.ar    1  LIG1       -0.1338
      3 C           1.1968    2.3931   -0.0000 C.ar    1  LIG1        0.2380
      4 N          -0.8254    1.0712   -0.0000 N.ar    1  LIG1       -0.1338
      5 N           1.9401    1.1968   -0.0000 N.ar    1  LIG1       -0.1226
      6 N          -0.2061    2.2702   -0.0001 N.ar    1  LIG1       -0.1226
      7 H          -0.5904   -1.1806   -0.0000 H       1  LIG1        0.1085
      8 C           1.7783    3.5558    0.0000 C.ar    1  LIG1        0.1751
      9 C           3.0834    4.0026    0.0000 C.ar    1  LIG1       -0.0126
     10 C           3.0266    5.4495    0.0000 C.ar    1  LIG1       -0.0232
     11 C           1.6898    5.7911   -0.0001 C.ar    1  LIG1        0.0927
     12 O           0.9003    4.6406   -0.0002 O.2     1  LIG1       -0.4597
     13 H           1.0182    6.9042   -0.0001 H       1  LIG1        0.1029
     14 H           4.1692    3.2876    0.0001 H       1  LIG1        0.0656
     15 H           4.0524    6.2481    0.0000 H       1  LIG1        0.0649
@<TRIPOS>BOND
     1    12    11   ar
     2    12     8   ar
     3     6     3   ar
     4     6     4   ar
     5    11    13    1
     6    11    10   ar
     7     1     2   ar
     8     1     4   ar
     9     1     7    1
    10     2     5   ar
    11     3     5   ar
    12     3     8    1
    13     8     9   ar
    14     9    10   ar
    15     9    14    1
    16    10    15    1
