@<TRIPOS>MOLECULE
mol_data/noopt/geoms/mol2/81212-13-.out
 30 33 0 0 0
SMALL
GASTEIGER

@<TRIPOS>ATOM
      1 C          -0.0089   -0.0179   -0.0000 C.ar    1  LIG1        0.1605
      2 N           1.3522   -0.0179   -0.0000 N.ar    1  LIG1       -0.1338
      3 C           1.1968    2.3931   -0.0000 C.ar    1  LIG1        0.2381
      4 N          -0.8254    1.0712   -0.0000 N.ar    1  LIG1       -0.1338
      5 N           1.9401    1.1968   -0.0000 N.ar    1  LIG1       -0.1226
      6 N          -0.2061    2.2702   -0.0001 N.ar    1  LIG1       -0.1226
      7 H          -0.5904   -1.1806   -0.0000 H       1  LIG1        0.1085
      8 C           1.7783    3.5558    0.0000 C.ar    1  LIG1        0.1761
      9 C           3.0834    4.0026    0.0000 C.ar    1  LIG1       -0.0119
     10 C           3.0266    5.4495    0.0000 C.ar    1  LIG1       -0.0121
     11 C           1.6898    5.7911   -0.0001 C.ar    1  LIG1        0.1707
     12 O           0.9003    4.6406   -0.0002 O.2     1  LIG1       -0.4485
     13 H           4.1692    3.2876    0.0001 H       1  LIG1        0.0657
     14 H           4.0524    6.2481    0.0000 H       1  LIG1        0.0657
     15 C           1.0182    6.9042   -0.0001 C.ar    1  LIG1        0.1706
     16 C          -0.3182    7.2464   -0.0001 C.ar    1  LIG1       -0.0121
     17 C          -0.3758    8.6933   -0.0001 C.ar    1  LIG1       -0.0137
     18 C           0.9298    9.1395   -0.0000 C.ar    1  LIG1        0.1519
     19 O           1.8077    8.0550    0.0001 O.2     1  LIG1       -0.4503
     20 H          -1.3440    6.4478   -0.0002 H       1  LIG1        0.0657
     21 H          -1.4616    9.4083   -0.0001 H       1  LIG1        0.0656
     22 C           1.5113   10.3022   -0.0000 C.ar    1  LIG1        0.0821
     23 C           0.9806   11.5537    0.0004 C.ar    1  LIG1       -0.0334
     24 C           2.0718   12.4810   -0.0010 C.ar    1  LIG1       -0.0437
     25 C           3.2213   11.7553   -0.0005 C.ar    1  LIG1        0.0023
     26 N           2.8828   10.4209   -0.0004 N.ar    1  LIG1       -0.3583
     27 H           3.5264    9.6635    0.0000 H       1  LIG1        0.1654
     28 H           4.4627   12.1415   -0.0012 H       1  LIG1        0.0807
     29 H          -0.2852   11.8502    0.0005 H       1  LIG1        0.0640
     30 H           1.9835   13.7780   -0.0020 H       1  LIG1        0.0633
@<TRIPOS>BOND
     1    30    24    1
     2    28    25    1
     3    24    25   ar
     4    24    23   ar
     5    25    26   ar
     6    26    22   ar
     7    26    27    1
     8    12    11   ar
     9    12     8   ar
    10    20    16    1
    11     6     3   ar
    12     6     4   ar
    13    11    15    1
    14    11    10   ar
    15    15    16   ar
    16    15    19   ar
    17    17    21    1
    18    17    16   ar
    19    17    18   ar
    20    22    18    1
    21    22    23   ar
    22    18    19   ar
    23     2     5   ar
    24     2     1   ar
    25    14    10    1
    26     3     5   ar
    27     3     8    1
    28     4     1   ar
    29     7     1    1
    30     8     9   ar
    31     9    10   ar
    32     9    13    1
    33    23    29    1
