@<TRIPOS>MOLECULE
mol_data/noopt/geoms/mol2/81212.out
 22 24 0 0 0
SMALL
GASTEIGER

@<TRIPOS>ATOM
      1 C          -0.0089   -0.0179   -0.0000 C.ar    1  LIG1        0.1605
      2 N           1.3522   -0.0179   -0.0000 N.ar    1  LIG1       -0.1338
      3 C           1.1968    2.3931   -0.0000 C.ar    1  LIG1        0.2381
      4 N          -0.8254    1.0712   -0.0000 N.ar    1  LIG1       -0.1338
      5 N           1.9401    1.1968   -0.0000 N.ar    1  LIG1       -0.1226
      6 N          -0.2061    2.2702   -0.0001 N.ar    1  LIG1       -0.1226
      7 H          -0.5904   -1.1806   -0.0000 H       1  LIG1        0.1085
      8 C           1.7783    3.5558    0.0000 C.ar    1  LIG1        0.1761
      9 C           3.0834    4.0026    0.0000 C.ar    1  LIG1       -0.0119
     10 C           3.0266    5.4495    0.0000 C.ar    1  LIG1       -0.0121
     11 C           1.6898    5.7911   -0.0001 C.ar    1  LIG1        0.1707
     12 O           0.9003    4.6406   -0.0002 O.2     1  LIG1       -0.4485
     13 H           4.1692    3.2876    0.0001 H       1  LIG1        0.0657
     14 H           4.0524    6.2481    0.0000 H       1  LIG1        0.0657
     15 C           1.0182    6.9042   -0.0001 C.ar    1  LIG1        0.1697
     16 C           1.3386    8.2460   -0.0001 C.ar    1  LIG1       -0.0128
     17 C           0.0854    8.9716   -0.0001 C.ar    1  LIG1       -0.0232
     18 C          -0.9180    8.0246   -0.0002 C.ar    1  LIG1        0.0927
     19 O          -0.3680    6.7424   -0.0003 O.2     1  LIG1       -0.4598
     20 H          -2.2177    8.0523   -0.0002 H       1  LIG1        0.1029
     21 H           2.5233    8.7811   -0.0000 H       1  LIG1        0.0656
     22 H          -0.0409   10.2655   -0.0001 H       1  LIG1        0.0649
@<TRIPOS>BOND
     1    19    18   ar
     2    19    15   ar
     3    20    18    1
     4    18    17   ar
     5    12    11   ar
     6    12     8   ar
     7    22    17    1
     8    17    16   ar
     9    16    15   ar
    10    16    21    1
    11    15    11    1
    12    11    10   ar
    13     6     4   ar
    14     6     3   ar
    15    10     9   ar
    16    10    14    1
    17     9     8   ar
    18     9    13    1
    19     8     3    1
    20     7     1    1
    21     5     3   ar
    22     5     2   ar
    23     4     1   ar
    24     2     1   ar
