@<TRIPOS>MOLECULE
mol_data/noopt/geoms/mol2/8128-.out
 21 23 0 0 0
SMALL
GASTEIGER

@<TRIPOS>ATOM
      1 C          -0.0089   -0.0179   -0.0000 C.ar    1  LIG1        0.1605
      2 N           1.3522   -0.0179   -0.0000 N.ar    1  LIG1       -0.1338
      3 C           1.1968    2.3931   -0.0000 C.ar    1  LIG1        0.2381
      4 N          -0.8254    1.0712   -0.0000 N.ar    1  LIG1       -0.1338
      5 N           1.9401    1.1968   -0.0000 N.ar    1  LIG1       -0.1226
      6 N          -0.2061    2.2702   -0.0001 N.ar    1  LIG1       -0.1226
      7 H          -0.5904   -1.1806   -0.0000 H       1  LIG1        0.1085
      8 C           1.7783    3.5558    0.0000 C.ar    1  LIG1        0.1761
      9 C           3.0834    4.0026    0.0000 C.ar    1  LIG1       -0.0119
     10 C           3.0266    5.4495    0.0000 C.ar    1  LIG1       -0.0119
     11 C           1.6898    5.7911   -0.0001 C.ar    1  LIG1        0.1761
     12 O           0.9003    4.6406   -0.0002 O.2     1  LIG1       -0.4483
     13 H           4.1692    3.2876    0.0001 H       1  LIG1        0.0657
     14 H           4.0524    6.2481    0.0000 H       1  LIG1        0.0657
     15 C           1.0182    6.9042   -0.0001 C.ar    1  LIG1        0.2381
     16 N          -0.3386    6.7966   -0.0001 N.ar    1  LIG1       -0.1226
     17 C          -0.3743    9.2123   -0.0001 C.ar    1  LIG1        0.1605
     18 N           1.7461    8.0544   -0.0001 N.ar    1  LIG1       -0.1226
     19 N          -1.0207    7.9610   -0.0001 N.ar    1  LIG1       -0.1338
     20 N           1.0339    9.2007   -0.0000 N.ar    1  LIG1       -0.1338
     21 H          -1.0459   10.3254   -0.0001 H       1  LIG1        0.1085
@<TRIPOS>BOND
     1    12    11   ar
     2    12     8   ar
     3    11    15    1
     4    11    10   ar
     5    21    17    1
     6    19    17   ar
     7    19    16   ar
     8    18    15   ar
     9    18    20   ar
    10    17    20   ar
    11    16    15   ar
    12     6     4   ar
    13     6     3   ar
    14     9    10   ar
    15     9     8   ar
    16     9    13    1
    17    10    14    1
    18     1     7    1
    19     1     4   ar
    20     1     2   ar
    21     8     3    1
    22     5     3   ar
    23     5     2   ar
