@<TRIPOS>MOLECULE
mol_data/noopt/geoms/mol2/8128-12.out
 28 31 0 0 0
SMALL
GASTEIGER

@<TRIPOS>ATOM
      1 C          -0.0089   -0.0179   -0.0000 C.ar    1  LIG1        0.1605
      2 N           1.3522   -0.0179   -0.0000 N.ar    1  LIG1       -0.1338
      3 C           1.1968    2.3931   -0.0000 C.ar    1  LIG1        0.2381
      4 N          -0.8254    1.0712   -0.0000 N.ar    1  LIG1       -0.1338
      5 N           1.9401    1.1968   -0.0000 N.ar    1  LIG1       -0.1226
      6 N          -0.2061    2.2702   -0.0001 N.ar    1  LIG1       -0.1226
      7 H          -0.5904   -1.1806   -0.0000 H       1  LIG1        0.1085
      8 C           1.7783    3.5558    0.0000 C.ar    1  LIG1        0.1761
      9 C           3.0834    4.0026    0.0000 C.ar    1  LIG1       -0.0119
     10 C           3.0266    5.4495    0.0000 C.ar    1  LIG1       -0.0119
     11 C           1.6898    5.7911   -0.0001 C.ar    1  LIG1        0.1761
     12 O           0.9003    4.6406   -0.0002 O.2     1  LIG1       -0.4483
     13 H           4.1692    3.2876    0.0001 H       1  LIG1        0.0657
     14 H           4.0524    6.2481    0.0000 H       1  LIG1        0.0657
     15 C           1.0182    6.9042   -0.0001 C.ar    1  LIG1        0.2381
     16 N          -0.3386    6.7966   -0.0001 N.ar    1  LIG1       -0.1219
     17 C          -0.3743    9.2123   -0.0001 C.ar    1  LIG1        0.2381
     18 N           1.7461    8.0544   -0.0001 N.ar    1  LIG1       -0.1219
     19 N          -1.0207    7.9610   -0.0001 N.ar    1  LIG1       -0.1219
     20 N           1.0339    9.2007   -0.0000 N.ar    1  LIG1       -0.1219
     21 C          -1.0459   10.3254   -0.0001 C.ar    1  LIG1        0.1751
     22 C          -0.7255   11.6672   -0.0001 C.ar    1  LIG1       -0.0126
     23 C          -1.9787   12.3929   -0.0001 C.ar    1  LIG1       -0.0232
     24 C          -2.9821   11.4459   -0.0002 C.ar    1  LIG1        0.0927
     25 O          -2.4320   10.1636   -0.0003 O.2     1  LIG1       -0.4597
     26 H          -4.2818   11.4736   -0.0002 H       1  LIG1        0.1029
     27 H           0.4592   12.2024   -0.0000 H       1  LIG1        0.0656
     28 H          -2.1049   13.6867   -0.0001 H       1  LIG1        0.0649
@<TRIPOS>BOND
     1    25    24   ar
     2    25    21   ar
     3    26    24    1
     4    24    23   ar
     5    12    11   ar
     6    12     8   ar
     7    15    18   ar
     8    15    16   ar
     9    15    11    1
    10    28    23    1
    11    23    22   ar
    12    22    21   ar
    13    22    27    1
    14    21    17    1
    15    19    17   ar
    16    19    16   ar
    17    18    20   ar
    18    17    20   ar
    19    11    10   ar
    20     6     4   ar
    21     6     3   ar
    22    14    10    1
    23     1     7    1
    24     1     4   ar
    25     1     2   ar
    26    10     9   ar
    27     9     8   ar
    28     9    13    1
    29     8     3    1
    30     5     3   ar
    31     5     2   ar
