@<TRIPOS>MOLECULE
mol_data/noopt/geoms/mol2/813-8.out
 22 24 0 0 0
SMALL
GASTEIGER

@<TRIPOS>ATOM
      1 C          -0.0089   -0.0179   -0.0000 C.ar    1  LIG1        0.1605
      2 N           1.3522   -0.0179   -0.0000 N.ar    1  LIG1       -0.1338
      3 C           1.1968    2.3931   -0.0000 C.ar    1  LIG1        0.2193
      4 N          -0.8254    1.0712   -0.0000 N.ar    1  LIG1       -0.1338
      5 N           1.9401    1.1968   -0.0000 N.ar    1  LIG1       -0.1243
      6 N          -0.2061    2.2702   -0.0001 N.ar    1  LIG1       -0.1243
      7 H          -0.5904   -1.1806   -0.0000 H       1  LIG1        0.1085
      8 C           1.7783    3.5558    0.0000 C.ar    1  LIG1        0.0880
      9 C           1.2476    4.8073    0.0005 C.ar    1  LIG1       -0.0325
     10 C           2.3388    5.7346   -0.0009 C.ar    1  LIG1       -0.0325
     11 C           3.4884    5.0089   -0.0004 C.ar    1  LIG1        0.0880
     12 N           3.1498    3.6746   -0.0003 N.ar    1  LIG1       -0.3491
     13 H           3.7935    2.9171    0.0001 H       1  LIG1        0.1661
     14 H          -0.0181    5.1038    0.0006 H       1  LIG1        0.0640
     15 H           2.2505    7.0316   -0.0019 H       1  LIG1        0.0640
     16 C           4.7297    5.3951   -0.0011 C.ar    1  LIG1        0.2193
     17 N           5.6727    4.4136   -0.0014 N.ar    1  LIG1       -0.1243
     18 C           7.3037    6.1960   -0.0025 C.ar    1  LIG1        0.1605
     19 N           4.9494    6.7384   -0.0014 N.ar    1  LIG1       -0.1243
     20 N           6.9559    4.8312   -0.0021 N.ar    1  LIG1       -0.1338
     21 N           6.2431    7.1225   -0.0022 N.ar    1  LIG1       -0.1338
     22 H           8.5450    6.5821   -0.0032 H       1  LIG1        0.1085
@<TRIPOS>BOND
     1    22    18    1
     2    18    21   ar
     3    18    20   ar
     4    21    19   ar
     5    20    17   ar
     6    15    10    1
     7    19    16   ar
     8    17    16   ar
     9    16    11    1
    10    10    11   ar
    11    10     9   ar
    12    11    12   ar
    13    12     8   ar
    14    12    13    1
    15     6     4   ar
    16     6     3   ar
    17     1     7    1
    18     1     4   ar
    19     1     2   ar
    20     8     3    1
    21     8     9   ar
    22     5     3   ar
    23     5     2   ar
    24     9    14    1
