@<TRIPOS>MOLECULE
mol_data/noopt/geoms/mol2/813-12.out
 23 25 0 0 0
SMALL
GASTEIGER

@<TRIPOS>ATOM
      1 C          -0.0089   -0.0179   -0.0000 C.ar    1  LIG1        0.1605
      2 N           1.3522   -0.0179   -0.0000 N.ar    1  LIG1       -0.1338
      3 C           1.1968    2.3931   -0.0000 C.ar    1  LIG1        0.2193
      4 N          -0.8254    1.0712   -0.0000 N.ar    1  LIG1       -0.1338
      5 N           1.9401    1.1968   -0.0000 N.ar    1  LIG1       -0.1243
      6 N          -0.2061    2.2702   -0.0001 N.ar    1  LIG1       -0.1243
      7 H          -0.5904   -1.1806   -0.0000 H       1  LIG1        0.1085
      8 C           1.7783    3.5558    0.0000 C.ar    1  LIG1        0.0880
      9 C           1.2476    4.8073    0.0005 C.ar    1  LIG1       -0.0325
     10 C           2.3388    5.7346   -0.0009 C.ar    1  LIG1       -0.0327
     11 C           3.4884    5.0089   -0.0004 C.ar    1  LIG1        0.0826
     12 N           3.1498    3.6746   -0.0003 N.ar    1  LIG1       -0.3492
     13 H           3.7935    2.9171    0.0001 H       1  LIG1        0.1661
     14 H          -0.0181    5.1038    0.0006 H       1  LIG1        0.0640
     15 H           2.2505    7.0316   -0.0019 H       1  LIG1        0.0640
     16 C           4.7297    5.3951   -0.0011 C.ar    1  LIG1        0.1509
     17 C           5.9561    4.7634   -0.0016 C.ar    1  LIG1       -0.0144
     18 C           6.9601    5.8069   -0.0023 C.ar    1  LIG1       -0.0233
     19 C           6.2804    7.0075   -0.0022 C.ar    1  LIG1        0.0926
     20 O           4.9038    6.7798   -0.0016 O.2     1  LIG1       -0.4615
     21 H           6.6178    8.2630   -0.0026 H       1  LIG1        0.1029
     22 H           6.1927    3.4851   -0.0014 H       1  LIG1        0.0656
     23 H           8.2467    5.6204   -0.0029 H       1  LIG1        0.0649
@<TRIPOS>BOND
     1    23    18    1
     2    21    19    1
     3    18    19   ar
     4    18    17   ar
     5    19    20   ar
     6    15    10    1
     7    17    22    1
     8    17    16   ar
     9    20    16   ar
    10    16    11    1
    11    10    11   ar
    12    10     9   ar
    13    11    12   ar
    14    12     8   ar
    15    12    13    1
    16     6     4   ar
    17     6     3   ar
    18     1     7    1
    19     1     4   ar
    20     1     2   ar
    21     8     3    1
    22     8     9   ar
    23     5     3   ar
    24     5     2   ar
    25     9    14    1
