@<TRIPOS>MOLECULE
mol_data/noopt/geoms/mol2/813-.out
 16 17 0 0 0
SMALL
GASTEIGER

@<TRIPOS>ATOM
      1 C          -0.0089   -0.0179   -0.0000 C.ar    1  LIG1        0.1605
      2 N           1.3522   -0.0179   -0.0000 N.ar    1  LIG1       -0.1338
      3 C           1.1968    2.3931   -0.0000 C.ar    1  LIG1        0.2193
      4 N          -0.8254    1.0712   -0.0000 N.ar    1  LIG1       -0.1338
      5 N           1.9401    1.1968   -0.0000 N.ar    1  LIG1       -0.1243
      6 N          -0.2061    2.2702   -0.0001 N.ar    1  LIG1       -0.1243
      7 H          -0.5904   -1.1806   -0.0000 H       1  LIG1        0.1085
      8 C           1.7783    3.5558    0.0000 C.ar    1  LIG1        0.0875
      9 C           1.2476    4.8073    0.0005 C.ar    1  LIG1       -0.0333
     10 C           2.3388    5.7346   -0.0009 C.ar    1  LIG1       -0.0437
     11 C           3.4884    5.0089   -0.0004 C.ar    1  LIG1        0.0023
     12 N           3.1498    3.6746   -0.0003 N.ar    1  LIG1       -0.3582
     13 H           3.7935    2.9171    0.0001 H       1  LIG1        0.1654
     14 H           4.7297    5.3951   -0.0011 H       1  LIG1        0.0807
     15 H          -0.0181    5.1038    0.0006 H       1  LIG1        0.0640
     16 H           2.2505    7.0316   -0.0019 H       1  LIG1        0.0633
@<TRIPOS>BOND
     1    16    10    1
     2    14    11    1
     3    10    11   ar
     4    10     9   ar
     5    11    12   ar
     6    12     8   ar
     7    12    13    1
     8     6     3   ar
     9     6     4   ar
    10     1     2   ar
    11     1     4   ar
    12     1     7    1
    13     2     5   ar
    14     3     5   ar
    15     3     8    1
    16     8     9   ar
    17     9    15    1
