@<TRIPOS>MOLECULE
mol_data/noopt/geoms/mol2/813-8-5-.out
 29 32 0 0 0
SMALL
GASTEIGER

@<TRIPOS>ATOM
      1 C          -0.0089   -0.0179   -0.0000 C.ar    1  LIG1        0.1605
      2 N           1.3522   -0.0179   -0.0000 N.ar    1  LIG1       -0.1338
      3 C           1.1968    2.3931   -0.0000 C.ar    1  LIG1        0.2193
      4 N          -0.8254    1.0712   -0.0000 N.ar    1  LIG1       -0.1338
      5 N           1.9401    1.1968   -0.0000 N.ar    1  LIG1       -0.1243
      6 N          -0.2061    2.2702   -0.0001 N.ar    1  LIG1       -0.1243
      7 H          -0.5904   -1.1806   -0.0000 H       1  LIG1        0.1085
      8 C           1.7783    3.5558    0.0000 C.ar    1  LIG1        0.0880
      9 C           1.2476    4.8073    0.0005 C.ar    1  LIG1       -0.0325
     10 C           2.3388    5.7346   -0.0009 C.ar    1  LIG1       -0.0325
     11 C           3.4884    5.0089   -0.0004 C.ar    1  LIG1        0.0880
     12 N           3.1498    3.6746   -0.0003 N.ar    1  LIG1       -0.3491
     13 H           3.7935    2.9171    0.0001 H       1  LIG1        0.1661
     14 H          -0.0181    5.1038    0.0006 H       1  LIG1        0.0640
     15 H           2.2505    7.0316   -0.0019 H       1  LIG1        0.0640
     16 C           4.7297    5.3951   -0.0011 C.ar    1  LIG1        0.2194
     17 N           4.9494    6.7384   -0.0014 N.ar    1  LIG1       -0.1237
     18 C           7.3037    6.1958   -0.0025 C.ar    1  LIG1        0.2099
     19 N           5.6727    4.4135   -0.0014 N.ar    1  LIG1       -0.1237
     20 N           6.2431    7.1224   -0.0021 N.ar    1  LIG1       -0.1246
     21 N           6.9560    4.8311   -0.0020 N.ar    1  LIG1       -0.1246
     22 C           8.5451    6.5819   -0.0032 C.ar    1  LIG1        0.0598
     23 C           8.9797    7.8888   -0.0034 C.ar    1  LIG1       -0.0438
     24 C          10.4097    7.9668   -0.0034 C.ar    1  LIG1       -0.0540
     25 C          10.9840    6.7151   -0.0040 C.ar    1  LIG1       -0.0236
     26 S           9.8268    5.5080   -0.0037 S.2     1  LIG1       -0.0934
     27 H          12.2600    6.4662   -0.0047 H       1  LIG1        0.0693
     28 H           8.2111    8.9372   -0.0035 H       1  LIG1        0.0630
     29 H          11.0597    9.0927   -0.0030 H       1  LIG1        0.0623
@<TRIPOS>BOND
     1    27    25    1
     2    25    26   ar
     3    25    24   ar
     4    26    22   ar
     5    28    23    1
     6    24    23   ar
     7    24    29    1
     8    23    22   ar
     9    22    18    1
    10    18    20   ar
    11    18    21   ar
    12    20    17   ar
    13    21    19   ar
    14    15    10    1
    15    17    16   ar
    16    19    16   ar
    17    16    11    1
    18    10    11   ar
    19    10     9   ar
    20    11    12   ar
    21    12     8   ar
    22    12    13    1
    23     6     3   ar
    24     6     4   ar
    25     2     5   ar
    26     2     1   ar
    27     3     5   ar
    28     3     8    1
    29     4     1   ar
    30     7     1    1
    31     8     9   ar
    32     9    14    1
