@<TRIPOS>MOLECULE
mol_data/noopt/geoms/mol2/813-13.out
 24 26 0 0 0
SMALL
GASTEIGER

@<TRIPOS>ATOM
      1 C          -0.0089   -0.0179   -0.0000 C.ar    1  LIG1        0.1605
      2 N           1.3522   -0.0179   -0.0000 N.ar    1  LIG1       -0.1338
      3 C           1.1968    2.3931   -0.0000 C.ar    1  LIG1        0.2193
      4 N          -0.8254    1.0712   -0.0000 N.ar    1  LIG1       -0.1338
      5 N           1.9401    1.1968   -0.0000 N.ar    1  LIG1       -0.1243
      6 N          -0.2061    2.2702   -0.0001 N.ar    1  LIG1       -0.1243
      7 H          -0.5904   -1.1806   -0.0000 H       1  LIG1        0.1085
      8 C           1.7783    3.5558    0.0000 C.ar    1  LIG1        0.0880
      9 C           1.2476    4.8073    0.0005 C.ar    1  LIG1       -0.0326
     10 C           2.3388    5.7346   -0.0009 C.ar    1  LIG1       -0.0343
     11 C           3.4884    5.0089   -0.0004 C.ar    1  LIG1        0.0634
     12 N           3.1498    3.6746   -0.0003 N.ar    1  LIG1       -0.3505
     13 H           3.7935    2.9171    0.0001 H       1  LIG1        0.1660
     14 H          -0.0181    5.1038    0.0006 H       1  LIG1        0.0640
     15 H           2.2505    7.0316   -0.0019 H       1  LIG1        0.0639
     16 C           4.7297    5.3951   -0.0011 C.ar    1  LIG1        0.0629
     17 C           5.8791    4.6693   -0.0019 C.ar    1  LIG1       -0.0350
     18 C           6.9704    5.5966   -0.0013 C.ar    1  LIG1       -0.0438
     19 C           6.4399    6.8482   -0.0019 C.ar    1  LIG1        0.0022
     20 N           5.0683    6.7294   -0.0013 N.ar    1  LIG1       -0.3595
     21 H           4.4247    7.4869   -0.0016 H       1  LIG1        0.1654
     22 H           7.0214    8.0109   -0.0018 H       1  LIG1        0.0807
     23 H           5.9674    3.3723   -0.0017 H       1  LIG1        0.0639
     24 H           8.2362    5.3000   -0.0007 H       1  LIG1        0.0633
@<TRIPOS>BOND
     1    15    10    1
     2    17    23    1
     3    17    18   ar
     4    17    16   ar
     5    19    22    1
     6    19    20   ar
     7    19    18   ar
     8    21    20    1
     9    20    16   ar
    10    18    24    1
    11    16    11    1
    12    10    11   ar
    13    10     9   ar
    14    11    12   ar
    15    12     8   ar
    16    12    13    1
    17     6     4   ar
    18     6     3   ar
    19     1     7    1
    20     1     4   ar
    21     1     2   ar
    22     8     3    1
    23     8     9   ar
    24     5     3   ar
    25     5     2   ar
    26     9    14    1
