@<TRIPOS>MOLECULE
mol_data/noopt/geoms/mol2/813-1313.out
 32 35 0 0 0
SMALL
GASTEIGER

@<TRIPOS>ATOM
      1 C          -0.0089   -0.0179   -0.0000 C.ar    1  LIG1        0.1605
      2 N           1.3522   -0.0179   -0.0000 N.ar    1  LIG1       -0.1338
      3 C           1.1968    2.3931   -0.0000 C.ar    1  LIG1        0.2193
      4 N          -0.8254    1.0712   -0.0000 N.ar    1  LIG1       -0.1338
      5 N           1.9401    1.1968   -0.0000 N.ar    1  LIG1       -0.1243
      6 N          -0.2061    2.2702   -0.0001 N.ar    1  LIG1       -0.1243
      7 H          -0.5904   -1.1806   -0.0000 H       1  LIG1        0.1085
      8 C           1.7783    3.5558    0.0000 C.ar    1  LIG1        0.0880
      9 C           1.2476    4.8073    0.0005 C.ar    1  LIG1       -0.0326
     10 C           2.3388    5.7346   -0.0009 C.ar    1  LIG1       -0.0343
     11 C           3.4884    5.0089   -0.0004 C.ar    1  LIG1        0.0634
     12 N           3.1498    3.6746   -0.0003 N.ar    1  LIG1       -0.3505
     13 H           3.7935    2.9171    0.0001 H       1  LIG1        0.1660
     14 H          -0.0181    5.1038    0.0006 H       1  LIG1        0.0640
     15 H           2.2505    7.0316   -0.0019 H       1  LIG1        0.0639
     16 C           4.7297    5.3951   -0.0011 C.ar    1  LIG1        0.0634
     17 C           5.8791    4.6693   -0.0019 C.ar    1  LIG1       -0.0343
     18 C           6.9704    5.5966   -0.0013 C.ar    1  LIG1       -0.0343
     19 C           6.4399    6.8482   -0.0019 C.ar    1  LIG1        0.0633
     20 N           5.0683    6.7294   -0.0013 N.ar    1  LIG1       -0.3519
     21 H           4.4247    7.4869   -0.0016 H       1  LIG1        0.1660
     22 H           5.9674    3.3723   -0.0017 H       1  LIG1        0.0639
     23 H           8.2362    5.3000   -0.0007 H       1  LIG1        0.0639
     24 C           7.0214    8.0109   -0.0018 C.ar    1  LIG1        0.0629
     25 C           8.3411    8.3370   -0.0021 C.ar    1  LIG1       -0.0350
     26 C           8.4284    9.7663   -0.0007 C.ar    1  LIG1       -0.0438
     27 C           7.1583   10.2508   -0.0014 C.ar    1  LIG1        0.0022
     28 N           6.2937    9.1795   -0.0016 N.ar    1  LIG1       -0.3595
     29 H           5.3016    9.2401   -0.0021 H       1  LIG1        0.1654
     30 H           6.7227   11.4757   -0.0008 H       1  LIG1        0.0807
     31 H           9.3375    7.5021   -0.0020 H       1  LIG1        0.0639
     32 H           9.5192   10.4736    0.0005 H       1  LIG1        0.0633
@<TRIPOS>BOND
     1    29    28    1
     2    25    31    1
     3    25    24   ar
     4    25    26   ar
     5    15    10    1
     6    17    22    1
     7    17    18   ar
     8    17    16   ar
     9    19    24    1
    10    19    20   ar
    11    19    18   ar
    12    24    28   ar
    13    21    20    1
    14    28    27   ar
    15    27    30    1
    16    27    26   ar
    17    20    16   ar
    18    18    23    1
    19    16    11    1
    20    10    11   ar
    21    10     9   ar
    22    26    32    1
    23    11    12   ar
    24    12     8   ar
    25    12    13    1
    26     6     4   ar
    27     6     3   ar
    28     1     7    1
    29     1     4   ar
    30     1     2   ar
    31     8     3    1
    32     8     9   ar
    33     5     3   ar
    34     5     2   ar
    35     9    14    1
