@<TRIPOS>MOLECULE
mol_data/noopt/geoms/mol2/813-5.out
 23 25 0 0 0
SMALL
GASTEIGER

@<TRIPOS>ATOM
      1 C          -0.0089   -0.0179   -0.0000 C.ar    1  LIG1        0.1605
      2 N           1.3522   -0.0179   -0.0000 N.ar    1  LIG1       -0.1338
      3 C           1.1968    2.3931   -0.0000 C.ar    1  LIG1        0.2193
      4 N          -0.8254    1.0712   -0.0000 N.ar    1  LIG1       -0.1338
      5 N           1.9401    1.1968   -0.0000 N.ar    1  LIG1       -0.1243
      6 N          -0.2061    2.2702   -0.0001 N.ar    1  LIG1       -0.1243
      7 H          -0.5904   -1.1806   -0.0000 H       1  LIG1        0.1085
      8 C           1.7783    3.5558    0.0000 C.ar    1  LIG1        0.0880
      9 C           1.2476    4.8073    0.0005 C.ar    1  LIG1       -0.0326
     10 C           2.3388    5.7346   -0.0009 C.ar    1  LIG1       -0.0352
     11 C           3.4884    5.0089   -0.0004 C.ar    1  LIG1        0.0536
     12 N           3.1498    3.6746   -0.0003 N.ar    1  LIG1       -0.3512
     13 H           3.7935    2.9171    0.0001 H       1  LIG1        0.1660
     14 H          -0.0181    5.1038    0.0006 H       1  LIG1        0.0640
     15 H           2.2505    7.0316   -0.0019 H       1  LIG1        0.0639
     16 C           4.7297    5.3951   -0.0011 C.ar    1  LIG1        0.0355
     17 C           5.8290    4.5655   -0.0019 C.ar    1  LIG1       -0.0455
     18 C           7.0509    5.3124   -0.0032 C.ar    1  LIG1       -0.0541
     19 C           6.8138    6.6691   -0.0026 C.ar    1  LIG1       -0.0237
     20 S           5.1761    7.0066   -0.0012 S.2     1  LIG1       -0.0952
     21 H           7.7234    7.5979   -0.0029 H       1  LIG1        0.0693
     22 H           5.7908    3.2661   -0.0017 H       1  LIG1        0.0629
     23 H           8.2249    4.7540   -0.0049 H       1  LIG1        0.0623
@<TRIPOS>BOND
     1    23    18    1
     2    18    19   ar
     3    18    17   ar
     4    21    19    1
     5    19    20   ar
     6    15    10    1
     7    17    22    1
     8    17    16   ar
     9    20    16   ar
    10    16    11    1
    11    10    11   ar
    12    10     9   ar
    13    11    12   ar
    14    12     8   ar
    15    12    13    1
    16     6     4   ar
    17     6     3   ar
    18     1     7    1
    19     1     4   ar
    20     1     2   ar
    21     8     3    1
    22     8     9   ar
    23     5     3   ar
    24     5     2   ar
    25     9    14    1
