@<TRIPOS>MOLECULE
mol_data/noopt/geoms/mol2/813-513.out
 31 34 0 0 0
SMALL
GASTEIGER

@<TRIPOS>ATOM
      1 C          -0.0089   -0.0179   -0.0000 C.ar    1  LIG1        0.1605
      2 N           1.3522   -0.0179   -0.0000 N.ar    1  LIG1       -0.1338
      3 C           1.1968    2.3931   -0.0000 C.ar    1  LIG1        0.2193
      4 N          -0.8254    1.0712   -0.0000 N.ar    1  LIG1       -0.1338
      5 N           1.9401    1.1968   -0.0000 N.ar    1  LIG1       -0.1243
      6 N          -0.2061    2.2702   -0.0001 N.ar    1  LIG1       -0.1243
      7 H          -0.5904   -1.1806   -0.0000 H       1  LIG1        0.1085
      8 C           1.7783    3.5558    0.0000 C.ar    1  LIG1        0.0880
      9 C           1.2476    4.8073    0.0005 C.ar    1  LIG1       -0.0326
     10 C           2.3388    5.7346   -0.0009 C.ar    1  LIG1       -0.0352
     11 C           3.4884    5.0089   -0.0004 C.ar    1  LIG1        0.0537
     12 N           3.1498    3.6746   -0.0003 N.ar    1  LIG1       -0.3512
     13 H           3.7935    2.9171    0.0001 H       1  LIG1        0.1660
     14 H          -0.0181    5.1038    0.0006 H       1  LIG1        0.0640
     15 H           2.2505    7.0316   -0.0019 H       1  LIG1        0.0639
     16 C           4.7297    5.3951   -0.0011 C.ar    1  LIG1        0.0361
     17 C           5.8290    4.5655   -0.0019 C.ar    1  LIG1       -0.0449
     18 C           7.0509    5.3124   -0.0032 C.ar    1  LIG1       -0.0449
     19 C           6.8138    6.6691   -0.0026 C.ar    1  LIG1        0.0361
     20 S           5.1761    7.0066   -0.0012 S.2     1  LIG1       -0.0853
     21 H           5.7908    3.2661   -0.0017 H       1  LIG1        0.0630
     22 H           8.2249    4.7540   -0.0049 H       1  LIG1        0.0630
     23 C           7.7234    7.5979   -0.0029 C.ar    1  LIG1        0.0531
     24 C           9.0795    7.5042   -0.0035 C.ar    1  LIG1       -0.0359
     25 C           9.6003    8.8382   -0.0025 C.ar    1  LIG1       -0.0438
     26 C           8.5395    9.6883   -0.0031 C.ar    1  LIG1        0.0022
     27 N           7.3884    8.9332   -0.0029 N.ar    1  LIG1       -0.3603
     28 H           6.4625    9.2947   -0.0034 H       1  LIG1        0.1653
     29 H           8.4998   10.9877   -0.0028 H       1  LIG1        0.0807
     30 H           9.7725    6.4044   -0.0033 H       1  LIG1        0.0639
     31 H          10.8552    9.1776   -0.0017 H       1  LIG1        0.0633
@<TRIPOS>BOND
     1    22    18    1
     2    24    30    1
     3    24    23   ar
     4    24    25   ar
     5    28    27    1
     6    18    19   ar
     7    18    17   ar
     8    26    27   ar
     9    26    29    1
    10    26    25   ar
    11    27    23   ar
    12    23    19    1
    13    19    20   ar
    14    25    31    1
    15    15    10    1
    16    17    21    1
    17    17    16   ar
    18    20    16   ar
    19    16    11    1
    20    10    11   ar
    21    10     9   ar
    22    11    12   ar
    23    12     8   ar
    24    12    13    1
    25     6     4   ar
    26     6     3   ar
    27     1     7    1
    28     1     4   ar
    29     1     2   ar
    30     8     3    1
    31     8     9   ar
    32     5     3   ar
    33     5     2   ar
    34     9    14    1
