@<TRIPOS>MOLECULE
mol_data/noopt/geoms/mol2/813-4-4-.out
 36 39 0 0 0
SMALL
GASTEIGER

@<TRIPOS>ATOM
      1 C          -0.0089   -0.0179   -0.0000 C.ar    1  LIG1        0.1605
      2 N           1.3522   -0.0179   -0.0000 N.ar    1  LIG1       -0.1338
      3 C           1.1968    2.3931   -0.0000 C.ar    1  LIG1        0.2193
      4 N          -0.8254    1.0712   -0.0000 N.ar    1  LIG1       -0.1338
      5 N           1.9401    1.1968   -0.0000 N.ar    1  LIG1       -0.1243
      6 N          -0.2061    2.2702   -0.0001 N.ar    1  LIG1       -0.1243
      7 H          -0.5904   -1.1806   -0.0000 H       1  LIG1        0.1085
      8 C           1.7783    3.5558    0.0000 C.ar    1  LIG1        0.0879
      9 C           1.2476    4.8073    0.0005 C.ar    1  LIG1       -0.0326
     10 C           2.3388    5.7346   -0.0009 C.ar    1  LIG1       -0.0357
     11 C           3.4884    5.0089   -0.0004 C.ar    1  LIG1        0.0470
     12 N           3.1498    3.6746   -0.0003 N.ar    1  LIG1       -0.3516
     13 H           3.7935    2.9171    0.0001 H       1  LIG1        0.1660
     14 H          -0.0181    5.1038    0.0006 H       1  LIG1        0.0640
     15 H           2.2505    7.0316   -0.0019 H       1  LIG1        0.0639
     16 C           5.0373    6.7710   -0.0022 C.ar    1  LIG1       -0.0521
     17 C           6.3970    7.1378   -0.0044 C.ar    1  LIG1       -0.0534
     18 C           4.7297    5.3951   -0.0011 C.ar    1  LIG1       -0.0017
     19 C           7.4073    6.1788   -0.0049 C.ar    1  LIG1       -0.0178
     20 H           6.6566    8.1941   -0.0055 H       1  LIG1        0.0624
     21 C           5.7380    4.4373   -0.0016 C.ar    1  LIG1       -0.0521
     22 C           7.0829    4.8217   -0.0034 C.ar    1  LIG1       -0.0534
     23 H           5.4751    3.3825   -0.0008 H       1  LIG1        0.0624
     24 H           4.1396    7.7113   -0.0016 H       1  LIG1        0.0624
     25 H           8.0211    3.9218   -0.0040 H       1  LIG1        0.0624
     26 C           8.9732    7.9258   -0.0087 C.ar    1  LIG1       -0.0540
     27 C          10.3364    8.2794   -0.0124 C.ar    1  LIG1       -0.0612
     28 C           8.6523    6.5529   -0.0069 C.ar    1  LIG1       -0.0179
     29 C          11.3375    7.3106   -0.0135 C.ar    1  LIG1       -0.0617
     30 H          10.6063    9.3331   -0.0140 H       1  LIG1        0.0618
     31 C           9.6513    5.5854   -0.0081 C.ar    1  LIG1       -0.0540
     32 C          10.9998    5.9567   -0.0113 C.ar    1  LIG1       -0.0612
     33 H           9.3782    4.5332   -0.0067 H       1  LIG1        0.0624
     34 H          12.5860    7.6727   -0.0168 H       1  LIG1        0.0618
     35 H           8.0847    8.8748   -0.0075 H       1  LIG1        0.0624
     36 H          11.9293    5.0478   -0.0125 H       1  LIG1        0.0618
@<TRIPOS>BOND
     1    34    29    1
     2    30    27    1
     3    29    27   ar
     4    29    32   ar
     5    36    32    1
     6    27    26   ar
     7    32    31   ar
     8    26    35    1
     9    26    28   ar
    10    31    28   ar
    11    31    33    1
    12    28    19    1
    13    20    17    1
    14    19    17   ar
    15    19    22   ar
    16    17    16   ar
    17    25    22    1
    18    22    21   ar
    19    16    24    1
    20    16    18   ar
    21    15    10    1
    22    21    18   ar
    23    21    23    1
    24    18    11    1
    25    10    11   ar
    26    10     9   ar
    27    11    12   ar
    28    12     8   ar
    29    12    13    1
    30     6     4   ar
    31     6     3   ar
    32     4     1   ar
    33     3     5   ar
    34     3     8    1
    35     5     2   ar
    36     2     1   ar
    37     7     1    1
    38     8     9   ar
    39     9    14    1
