@<TRIPOS>MOLECULE
mol_data/noopt/geoms/mol2/813.out
 16 17 0 0 0
SMALL
GASTEIGER

@<TRIPOS>ATOM
      1 C          -0.0089   -0.0179   -0.0000 C.ar    1  LIG1        0.1605
      2 N           1.3522   -0.0179   -0.0000 N.ar    1  LIG1       -0.1338
      3 C           1.1968    2.3931   -0.0000 C.ar    1  LIG1        0.2193
      4 N          -0.8254    1.0712   -0.0000 N.ar    1  LIG1       -0.1338
      5 N           1.9401    1.1968   -0.0000 N.ar    1  LIG1       -0.1243
      6 N          -0.2061    2.2702   -0.0001 N.ar    1  LIG1       -0.1243
      7 H          -0.5904   -1.1806   -0.0000 H       1  LIG1        0.1085
      8 C           1.7783    3.5558    0.0000 C.ar    1  LIG1        0.0875
      9 C           3.0980    3.8819   -0.0004 C.ar    1  LIG1       -0.0333
     10 C           3.1854    5.3112    0.0009 C.ar    1  LIG1       -0.0437
     11 C           1.9152    5.7957    0.0003 C.ar    1  LIG1        0.0023
     12 N           1.0506    4.7244    0.0002 N.ar    1  LIG1       -0.3582
     13 H           0.0585    4.7851   -0.0004 H       1  LIG1        0.1654
     14 H           1.4796    7.0206    0.0008 H       1  LIG1        0.0807
     15 H           4.0945    3.0470   -0.0003 H       1  LIG1        0.0640
     16 H           4.2761    6.0185    0.0021 H       1  LIG1        0.0633
@<TRIPOS>BOND
     1    13    12    1
     2     9    15    1
     3     9     8   ar
     4     9    10   ar
     5     6     3   ar
     6     6     4   ar
     7     1     2   ar
     8     1     4   ar
     9     1     7    1
    10     2     5   ar
    11     3     5   ar
    12     3     8    1
    13     8    12   ar
    14    12    11   ar
    15    11    14    1
    16    11    10   ar
    17    10    16    1
