@<TRIPOS>MOLECULE
mol_data/noopt/geoms/mol2/81313-5.out
 31 34 0 0 0
SMALL
GASTEIGER

@<TRIPOS>ATOM
      1 C          -0.0089   -0.0179   -0.0000 C.ar    1  LIG1        0.1605
      2 N           1.3522   -0.0179   -0.0000 N.ar    1  LIG1       -0.1338
      3 C           1.1968    2.3931   -0.0000 C.ar    1  LIG1        0.2193
      4 N          -0.8254    1.0712   -0.0000 N.ar    1  LIG1       -0.1338
      5 N           1.9401    1.1968   -0.0000 N.ar    1  LIG1       -0.1243
      6 N          -0.2061    2.2702   -0.0001 N.ar    1  LIG1       -0.1243
      7 H          -0.5904   -1.1806   -0.0000 H       1  LIG1        0.1085
      8 C           1.7783    3.5558    0.0000 C.ar    1  LIG1        0.0880
      9 C           3.0980    3.8819   -0.0004 C.ar    1  LIG1       -0.0326
     10 C           3.1854    5.3112    0.0009 C.ar    1  LIG1       -0.0343
     11 C           1.9152    5.7957    0.0003 C.ar    1  LIG1        0.0634
     12 N           1.0506    4.7244    0.0002 N.ar    1  LIG1       -0.3505
     13 H           0.0585    4.7851   -0.0004 H       1  LIG1        0.1660
     14 H           4.0945    3.0470   -0.0003 H       1  LIG1        0.0640
     15 H           4.2761    6.0185    0.0021 H       1  LIG1        0.0639
     16 C           1.4796    7.0206    0.0008 C.ar    1  LIG1        0.0633
     17 C           0.2094    7.5049    0.0017 C.ar    1  LIG1       -0.0344
     18 C           0.2967    8.9343    0.0009 C.ar    1  LIG1       -0.0353
     19 C           1.6164    9.2605    0.0013 C.ar    1  LIG1        0.0536
     20 N           2.3441    8.0919    0.0008 N.ar    1  LIG1       -0.3526
     21 H           3.3363    8.0313    0.0011 H       1  LIG1        0.1660
     22 H          -0.8813    6.7976    0.0017 H       1  LIG1        0.0639
     23 H          -0.6997    9.7691    0.0003 H       1  LIG1        0.0639
     24 C           2.1979   10.4232    0.0010 C.ar    1  LIG1        0.0355
     25 C           3.5578   10.6412    0.0004 C.ar    1  LIG1       -0.0455
     26 C           3.8657   12.0399   -0.0005 C.ar    1  LIG1       -0.0541
     27 C           2.7231   12.8087    0.0002 C.ar    1  LIG1       -0.0237
     28 S           1.3450   11.8615    0.0012 S.2     1  LIG1       -0.0952
     29 H           2.6834   14.1081    0.0002 H       1  LIG1        0.0693
     30 H           4.4684    9.7134    0.0005 H       1  LIG1        0.0629
     31 H           5.0817   12.4995   -0.0019 H       1  LIG1        0.0623
@<TRIPOS>BOND
     1    31    26    1
     2    26    27   ar
     3    26    25   ar
     4    13    12    1
     5     9    14    1
     6     9     8   ar
     7     9    10   ar
     8     6     3   ar
     9     6     4   ar
    10     1     2   ar
    11     1     4   ar
    12     1     7    1
    13     8     3    1
    14     8    12   ar
    15     2     5   ar
    16     3     5   ar
    17    27    29    1
    18    27    28   ar
    19    12    11   ar
    20    11    16    1
    21    11    10   ar
    22    23    18    1
    23    25    30    1
    24    25    24   ar
    25    20    16   ar
    26    20    21    1
    27    20    19   ar
    28    16    17   ar
    29    18    19   ar
    30    18    17   ar
    31    10    15    1
    32    24    28   ar
    33    24    19    1
    34    22    17    1
