@<TRIPOS>MOLECULE
mol_data/noopt/geoms/mol2/81312-13-.out
 31 34 0 0 0
SMALL
GASTEIGER

@<TRIPOS>ATOM
      1 C          -0.0089   -0.0179   -0.0000 C.ar    1  LIG1        0.1605
      2 N           1.3522   -0.0179   -0.0000 N.ar    1  LIG1       -0.1338
      3 C           1.1968    2.3931   -0.0000 C.ar    1  LIG1        0.2193
      4 N          -0.8254    1.0712   -0.0000 N.ar    1  LIG1       -0.1338
      5 N           1.9401    1.1968   -0.0000 N.ar    1  LIG1       -0.1243
      6 N          -0.2061    2.2702   -0.0001 N.ar    1  LIG1       -0.1243
      7 H          -0.5904   -1.1806   -0.0000 H       1  LIG1        0.1085
      8 C           1.7783    3.5558    0.0000 C.ar    1  LIG1        0.0880
      9 C           3.0980    3.8819   -0.0004 C.ar    1  LIG1       -0.0325
     10 C           3.1854    5.3112    0.0009 C.ar    1  LIG1       -0.0327
     11 C           1.9152    5.7957    0.0003 C.ar    1  LIG1        0.0826
     12 N           1.0506    4.7244    0.0002 N.ar    1  LIG1       -0.3492
     13 H           0.0585    4.7851   -0.0004 H       1  LIG1        0.1661
     14 H           4.0945    3.0470   -0.0003 H       1  LIG1        0.0640
     15 H           4.2761    6.0185    0.0021 H       1  LIG1        0.0640
     16 C           1.4796    7.0206    0.0008 C.ar    1  LIG1        0.1518
     17 C           0.2386    7.6229    0.0013 C.ar    1  LIG1       -0.0137
     18 C           0.4712    9.0522    0.0018 C.ar    1  LIG1       -0.0137
     19 C           1.8396    9.2285    0.0017 C.ar    1  LIG1        0.1518
     20 O           2.4831    7.9904    0.0013 O.2     1  LIG1       -0.4519
     21 H          -0.9261    7.0455    0.0011 H       1  LIG1        0.0656
     22 H          -0.4498    9.9697    0.0023 H       1  LIG1        0.0656
     23 C           2.6417   10.2515    0.0020 C.ar    1  LIG1        0.0821
     24 C           2.3718   11.5838    0.0027 C.ar    1  LIG1       -0.0334
     25 C           3.6264   12.2744    0.0016 C.ar    1  LIG1       -0.0437
     26 C           4.6077   11.3336    0.0020 C.ar    1  LIG1        0.0023
     27 N           4.0093   10.0938    0.0018 N.ar    1  LIG1       -0.3583
     28 H           4.4886    9.2230    0.0022 H       1  LIG1        0.1654
     29 H           5.9012   11.4639    0.0015 H       1  LIG1        0.0807
     30 H           1.1909   12.1273    0.0027 H       1  LIG1        0.0640
     31 H           3.7990   13.5628    0.0008 H       1  LIG1        0.0633
@<TRIPOS>BOND
     1    13    12    1
     2     9    14    1
     3     9     8   ar
     4     9    10   ar
     5     6     3   ar
     6     6     4   ar
     7     2     5   ar
     8     2     1   ar
     9     3     5   ar
    10     3     8    1
    11     4     1   ar
    12     7     1    1
    13     8    12   ar
    14    12    11   ar
    15    11    16    1
    16    11    10   ar
    17    31    25    1
    18    16    20   ar
    19    16    17   ar
    20    10    15    1
    21    21    17    1
    22    20    19   ar
    23    17    18   ar
    24    29    26    1
    25    25    26   ar
    26    25    24   ar
    27    19    18   ar
    28    19    23    1
    29    18    22    1
    30    27    23   ar
    31    27    26   ar
    32    27    28    1
    33    23    24   ar
    34    24    30    1
