@<TRIPOS>MOLECULE
mol_data/noopt/geoms/mol2/81313-.out
 24 26 0 0 0
SMALL
GASTEIGER

@<TRIPOS>ATOM
      1 C          -0.0089   -0.0179   -0.0000 C.ar    1  LIG1        0.1605
      2 N           1.3522   -0.0179   -0.0000 N.ar    1  LIG1       -0.1338
      3 C           1.1968    2.3931   -0.0000 C.ar    1  LIG1        0.2193
      4 N          -0.8254    1.0712   -0.0000 N.ar    1  LIG1       -0.1338
      5 N           1.9401    1.1968   -0.0000 N.ar    1  LIG1       -0.1243
      6 N          -0.2061    2.2702   -0.0001 N.ar    1  LIG1       -0.1243
      7 H          -0.5904   -1.1806   -0.0000 H       1  LIG1        0.1085
      8 C           1.7783    3.5558    0.0000 C.ar    1  LIG1        0.0880
      9 C           3.0980    3.8819   -0.0004 C.ar    1  LIG1       -0.0326
     10 C           3.1854    5.3112    0.0009 C.ar    1  LIG1       -0.0343
     11 C           1.9152    5.7957    0.0003 C.ar    1  LIG1        0.0634
     12 N           1.0506    4.7244    0.0002 N.ar    1  LIG1       -0.3505
     13 H           0.0585    4.7851   -0.0004 H       1  LIG1        0.1660
     14 H           4.0945    3.0470   -0.0003 H       1  LIG1        0.0640
     15 H           4.2761    6.0185    0.0021 H       1  LIG1        0.0639
     16 C           1.4796    7.0206    0.0008 C.ar    1  LIG1        0.0629
     17 C           0.2094    7.5049    0.0017 C.ar    1  LIG1       -0.0350
     18 C           0.2967    8.9343    0.0009 C.ar    1  LIG1       -0.0438
     19 C           1.6164    9.2605    0.0013 C.ar    1  LIG1        0.0022
     20 N           2.3441    8.0919    0.0008 N.ar    1  LIG1       -0.3595
     21 H           3.3363    8.0313    0.0011 H       1  LIG1        0.1654
     22 H           2.1979   10.4232    0.0010 H       1  LIG1        0.0807
     23 H          -0.8813    6.7976    0.0017 H       1  LIG1        0.0639
     24 H          -0.6997    9.7691    0.0003 H       1  LIG1        0.0633
@<TRIPOS>BOND
     1    13    12    1
     2     9    14    1
     3     9     8   ar
     4     9    10   ar
     5     6     4   ar
     6     6     3   ar
     7     1     4   ar
     8     1     7    1
     9     1     2   ar
    10     8     3    1
    11     8    12   ar
    12     5     3   ar
    13     5     2   ar
    14    12    11   ar
    15    11    16    1
    16    11    10   ar
    17    24    18    1
    18    20    16   ar
    19    20    21    1
    20    20    19   ar
    21    16    17   ar
    22    18    19   ar
    23    18    17   ar
    24    10    15    1
    25    22    19    1
    26    23    17    1
