@<TRIPOS>MOLECULE
mol_data/noopt/geoms/mol2/81312.out
 23 25 0 0 0
SMALL
GASTEIGER

@<TRIPOS>ATOM
      1 C          -0.0089   -0.0179   -0.0000 C.ar    1  LIG1        0.1605
      2 N           1.3522   -0.0179   -0.0000 N.ar    1  LIG1       -0.1338
      3 C           1.1968    2.3931   -0.0000 C.ar    1  LIG1        0.2193
      4 N          -0.8254    1.0712   -0.0000 N.ar    1  LIG1       -0.1338
      5 N           1.9401    1.1968   -0.0000 N.ar    1  LIG1       -0.1243
      6 N          -0.2061    2.2702   -0.0001 N.ar    1  LIG1       -0.1243
      7 H          -0.5904   -1.1806   -0.0000 H       1  LIG1        0.1085
      8 C           1.7783    3.5558    0.0000 C.ar    1  LIG1        0.0880
      9 C           3.0980    3.8819   -0.0004 C.ar    1  LIG1       -0.0325
     10 C           3.1854    5.3112    0.0009 C.ar    1  LIG1       -0.0327
     11 C           1.9152    5.7957    0.0003 C.ar    1  LIG1        0.0826
     12 N           1.0506    4.7244    0.0002 N.ar    1  LIG1       -0.3492
     13 H           0.0585    4.7851   -0.0004 H       1  LIG1        0.1661
     14 H           4.0945    3.0470   -0.0003 H       1  LIG1        0.0640
     15 H           4.2761    6.0185    0.0021 H       1  LIG1        0.0640
     16 C           1.4796    7.0206    0.0008 C.ar    1  LIG1        0.1509
     17 C           2.0616    8.2713    0.0013 C.ar    1  LIG1       -0.0144
     18 C           0.9788    9.2327    0.0018 C.ar    1  LIG1       -0.0233
     19 C          -0.1937    8.5054    0.0016 C.ar    1  LIG1        0.0926
     20 O           0.0891    7.1390    0.0009 O.2     1  LIG1       -0.4615
     21 H          -1.4616    8.7922    0.0019 H       1  LIG1        0.1029
     22 H           3.3294    8.5589    0.0013 H       1  LIG1        0.0656
     23 H           1.1136   10.5257    0.0023 H       1  LIG1        0.0649
@<TRIPOS>BOND
     1    13    12    1
     2     9    14    1
     3     9     8   ar
     4     9    10   ar
     5     6     3   ar
     6     6     4   ar
     7     2     5   ar
     8     2     1   ar
     9     3     5   ar
    10     3     8    1
    11     4     1   ar
    12     7     1    1
    13     8    12   ar
    14    12    11   ar
    15    11    16    1
    16    11    10   ar
    17    16    20   ar
    18    16    17   ar
    19    20    19   ar
    20    10    15    1
    21    17    22    1
    22    17    18   ar
    23    19    18   ar
    24    19    21    1
    25    18    23    1
