@<TRIPOS>MOLECULE
mol_data/noopt/geoms/mol2/813138.out
 30 33 0 0 0
SMALL
GASTEIGER

@<TRIPOS>ATOM
      1 C          -0.0089   -0.0179   -0.0000 C.ar    1  LIG1        0.1605
      2 N           1.3522   -0.0179   -0.0000 N.ar    1  LIG1       -0.1338
      3 C           1.1968    2.3931   -0.0000 C.ar    1  LIG1        0.2193
      4 N          -0.8254    1.0712   -0.0000 N.ar    1  LIG1       -0.1338
      5 N           1.9401    1.1968   -0.0000 N.ar    1  LIG1       -0.1243
      6 N          -0.2061    2.2702   -0.0001 N.ar    1  LIG1       -0.1243
      7 H          -0.5904   -1.1806   -0.0000 H       1  LIG1        0.1085
      8 C           1.7783    3.5558    0.0000 C.ar    1  LIG1        0.0880
      9 C           3.0980    3.8819   -0.0004 C.ar    1  LIG1       -0.0326
     10 C           3.1854    5.3112    0.0009 C.ar    1  LIG1       -0.0343
     11 C           1.9152    5.7957    0.0003 C.ar    1  LIG1        0.0634
     12 N           1.0506    4.7244    0.0002 N.ar    1  LIG1       -0.3505
     13 H           0.0585    4.7851   -0.0004 H       1  LIG1        0.1660
     14 H           4.0945    3.0470   -0.0003 H       1  LIG1        0.0640
     15 H           4.2761    6.0185    0.0021 H       1  LIG1        0.0639
     16 C           1.4796    7.0206    0.0008 C.ar    1  LIG1        0.0634
     17 C           2.1587    8.1982    0.0008 C.ar    1  LIG1       -0.0343
     18 C           1.1885    9.2514    0.0027 C.ar    1  LIG1       -0.0326
     19 C          -0.0408    8.6711    0.0020 C.ar    1  LIG1        0.0880
     20 N           0.1328    7.3054    0.0013 N.ar    1  LIG1       -0.3505
     21 H          -0.5983    6.6320    0.0006 H       1  LIG1        0.1660
     22 H           3.4512    8.3384    0.0008 H       1  LIG1        0.0639
     23 H           1.4341   10.5280    0.0043 H       1  LIG1        0.0640
     24 C          -1.2259    9.2056    0.0029 C.ar    1  LIG1        0.2193
     25 N          -1.2804   10.5656    0.0034 N.ar    1  LIG1       -0.1243
     26 C          -3.6833   10.3137    0.0048 C.ar    1  LIG1        0.1605
     27 N          -2.2814    8.3461    0.0034 N.ar    1  LIG1       -0.1243
     28 N          -2.5177   11.1043    0.0043 N.ar    1  LIG1       -0.1338
     29 N          -3.5043    8.9168    0.0042 N.ar    1  LIG1       -0.1338
     30 H          -4.8683   10.8481    0.0058 H       1  LIG1        0.1085
@<TRIPOS>BOND
     1    13    12    1
     2     9    14    1
     3     9     8   ar
     4     9    10   ar
     5     6     3   ar
     6     6     4   ar
     7     2     5   ar
     8     2     1   ar
     9     3     5   ar
    10     3     8    1
    11     4     1   ar
    12     7     1    1
    13     8    12   ar
    14    12    11   ar
    15    11    16    1
    16    11    10   ar
    17    21    20    1
    18    22    17    1
    19    16    17   ar
    20    16    20   ar
    21    17    18   ar
    22    10    15    1
    23    20    19   ar
    24    19    18   ar
    25    19    24    1
    26    18    23    1
    27    24    25   ar
    28    24    27   ar
    29    25    28   ar
    30    27    29   ar
    31    29    26   ar
    32    28    26   ar
    33    26    30    1
