@<TRIPOS>MOLECULE
mol_data/noopt/geoms/mol2/81313.out
 24 26 0 0 0
SMALL
GASTEIGER

@<TRIPOS>ATOM
      1 C          -0.0089   -0.0179   -0.0000 C.ar    1  LIG1        0.1605
      2 N           1.3522   -0.0179   -0.0000 N.ar    1  LIG1       -0.1338
      3 C           1.1968    2.3931   -0.0000 C.ar    1  LIG1        0.2193
      4 N          -0.8254    1.0712   -0.0000 N.ar    1  LIG1       -0.1338
      5 N           1.9401    1.1968   -0.0000 N.ar    1  LIG1       -0.1243
      6 N          -0.2061    2.2702   -0.0001 N.ar    1  LIG1       -0.1243
      7 H          -0.5904   -1.1806   -0.0000 H       1  LIG1        0.1085
      8 C           1.7783    3.5558    0.0000 C.ar    1  LIG1        0.0880
      9 C           3.0980    3.8819   -0.0004 C.ar    1  LIG1       -0.0326
     10 C           3.1854    5.3112    0.0009 C.ar    1  LIG1       -0.0343
     11 C           1.9152    5.7957    0.0003 C.ar    1  LIG1        0.0634
     12 N           1.0506    4.7244    0.0002 N.ar    1  LIG1       -0.3505
     13 H           0.0585    4.7851   -0.0004 H       1  LIG1        0.1660
     14 H           4.0945    3.0470   -0.0003 H       1  LIG1        0.0640
     15 H           4.2761    6.0185    0.0021 H       1  LIG1        0.0639
     16 C           1.4796    7.0206    0.0008 C.ar    1  LIG1        0.0629
     17 C           2.1587    8.1982    0.0008 C.ar    1  LIG1       -0.0350
     18 C           1.1885    9.2514    0.0027 C.ar    1  LIG1       -0.0438
     19 C          -0.0408    8.6711    0.0020 C.ar    1  LIG1        0.0022
     20 N           0.1328    7.3054    0.0013 N.ar    1  LIG1       -0.3595
     21 H          -0.5983    6.6320    0.0006 H       1  LIG1        0.1654
     22 H          -1.2259    9.2056    0.0029 H       1  LIG1        0.0807
     23 H           3.4512    8.3384    0.0008 H       1  LIG1        0.0639
     24 H           1.4341   10.5280    0.0043 H       1  LIG1        0.0633
@<TRIPOS>BOND
     1    13    12    1
     2     9    14    1
     3     9     8   ar
     4     9    10   ar
     5     6     4   ar
     6     6     3   ar
     7     1     4   ar
     8     1     2   ar
     9     1     7    1
    10     8     3    1
    11     8    12   ar
    12     5     3   ar
    13     5     2   ar
    14    12    11   ar
    15    11    16    1
    16    11    10   ar
    17    21    20    1
    18    23    17    1
    19    16    17   ar
    20    16    20   ar
    21    17    18   ar
    22    10    15    1
    23    20    19   ar
    24    19    18   ar
    25    19    22    1
    26    18    24    1
