@<TRIPOS>MOLECULE
mol_data/noopt/geoms/mol2/8134-.out
 26 28 0 0 0
SMALL
GASTEIGER

@<TRIPOS>ATOM
      1 C          -0.0089   -0.0179   -0.0000 C.ar    1  LIG1        0.1605
      2 N           1.3522   -0.0179   -0.0000 N.ar    1  LIG1       -0.1338
      3 C           1.1968    2.3931   -0.0000 C.ar    1  LIG1        0.2193
      4 N          -0.8254    1.0712   -0.0000 N.ar    1  LIG1       -0.1338
      5 N           1.9401    1.1968   -0.0000 N.ar    1  LIG1       -0.1243
      6 N          -0.2061    2.2702   -0.0001 N.ar    1  LIG1       -0.1243
      7 H          -0.5904   -1.1806   -0.0000 H       1  LIG1        0.1085
      8 C           1.7783    3.5558    0.0000 C.ar    1  LIG1        0.0879
      9 C           3.0980    3.8819   -0.0004 C.ar    1  LIG1       -0.0326
     10 C           3.1854    5.3112    0.0009 C.ar    1  LIG1       -0.0357
     11 C           1.9152    5.7957    0.0003 C.ar    1  LIG1        0.0470
     12 N           1.0506    4.7244    0.0002 N.ar    1  LIG1       -0.3516
     13 H           0.0585    4.7851   -0.0004 H       1  LIG1        0.1660
     14 H           4.0945    3.0470   -0.0003 H       1  LIG1        0.0640
     15 H           4.2761    6.0185    0.0021 H       1  LIG1        0.0639
     16 C           0.0925    7.2728    0.0004 C.ar    1  LIG1       -0.0526
     17 C          -0.3285    8.6166   -0.0005 C.ar    1  LIG1       -0.0611
     18 C           1.4796    7.0205    0.0008 C.ar    1  LIG1       -0.0017
     19 C           0.5892    9.6647   -0.0004 C.ar    1  LIG1       -0.0617
     20 H          -1.3944    8.8337   -0.0011 H       1  LIG1        0.0618
     21 C           2.3963    8.0664    0.0010 C.ar    1  LIG1       -0.0526
     22 C           1.9583    9.3948    0.0005 C.ar    1  LIG1       -0.0611
     23 H           3.4607    7.8460    0.0012 H       1  LIG1        0.0624
     24 H           0.1655   10.8937   -0.0011 H       1  LIG1        0.0618
     25 H          -0.8111    6.3381    0.0005 H       1  LIG1        0.0624
     26 H           2.8198   10.3684    0.0004 H       1  LIG1        0.0618
@<TRIPOS>BOND
     1    24    19    1
     2    20    17    1
     3    17    19   ar
     4    17    16   ar
     5    19    22   ar
     6    13    12    1
     7     9    14    1
     8     9     8   ar
     9     9    10   ar
    10     6     4   ar
    11     6     3   ar
    12     1     7    1
    13     1     4   ar
    14     1     2   ar
    15     8     3    1
    16     8    12   ar
    17     5     3   ar
    18     5     2   ar
    19    12    11   ar
    20    11    18    1
    21    11    10   ar
    22    16    25    1
    23    16    18   ar
    24    26    22    1
    25    22    21   ar
    26    18    21   ar
    27    10    15    1
    28    21    23    1
