@<TRIPOS>MOLECULE
mol_data/noopt/geoms/mol2/8134.out
 26 28 0 0 0
SMALL
GASTEIGER

@<TRIPOS>ATOM
      1 C          -0.0089   -0.0179   -0.0000 C.ar    1  LIG1        0.1605
      2 N           1.3522   -0.0179   -0.0000 N.ar    1  LIG1       -0.1338
      3 C           1.1968    2.3931   -0.0000 C.ar    1  LIG1        0.2193
      4 N          -0.8254    1.0712   -0.0000 N.ar    1  LIG1       -0.1338
      5 N           1.9401    1.1968   -0.0000 N.ar    1  LIG1       -0.1243
      6 N          -0.2061    2.2702   -0.0001 N.ar    1  LIG1       -0.1243
      7 H          -0.5904   -1.1806   -0.0000 H       1  LIG1        0.1085
      8 C           1.7783    3.5558    0.0000 C.ar    1  LIG1        0.0879
      9 C           3.0980    3.8819   -0.0004 C.ar    1  LIG1       -0.0326
     10 C           3.1854    5.3112    0.0009 C.ar    1  LIG1       -0.0357
     11 C           1.9152    5.7957    0.0003 C.ar    1  LIG1        0.0470
     12 N           1.0506    4.7244    0.0002 N.ar    1  LIG1       -0.3516
     13 H           0.0585    4.7851   -0.0004 H       1  LIG1        0.1660
     14 H           4.0945    3.0470   -0.0003 H       1  LIG1        0.0640
     15 H           4.2761    6.0185    0.0021 H       1  LIG1        0.0639
     16 C           2.3960    8.0920    0.0019 C.ar    1  LIG1       -0.0526
     17 C           1.8739    9.3999    0.0040 C.ar    1  LIG1       -0.0611
     18 C           1.4796    7.0205    0.0008 C.ar    1  LIG1       -0.0017
     19 C           0.5005    9.6331    0.0044 C.ar    1  LIG1       -0.0617
     20 H           2.5634   10.2413    0.0050 H       1  LIG1        0.0618
     21 C           0.1084    7.2527    0.0013 C.ar    1  LIG1       -0.0526
     22 C          -0.3907    8.5594    0.0029 C.ar    1  LIG1       -0.0611
     23 H          -0.5779    6.4098    0.0005 H       1  LIG1        0.0624
     24 H           0.0531   10.8537    0.0063 H       1  LIG1        0.0618
     25 H           3.6868    7.9378    0.0013 H       1  LIG1        0.0624
     26 H          -1.6735    8.7704    0.0035 H       1  LIG1        0.0618
@<TRIPOS>BOND
     1    13    12    1
     2     9    14    1
     3     9     8   ar
     4     9    10   ar
     5     6     4   ar
     6     6     3   ar
     7     1     4   ar
     8     1     2   ar
     9     1     7    1
    10     8     3    1
    11     8    12   ar
    12     5     3   ar
    13     5     2   ar
    14    12    11   ar
    15    11    18    1
    16    11    10   ar
    17    23    21    1
    18    18    21   ar
    19    18    16   ar
    20    10    15    1
    21    21    22   ar
    22    25    16    1
    23    16    17   ar
    24    22    26    1
    25    22    19   ar
    26    17    19   ar
    27    17    20    1
    28    19    24    1
