@<TRIPOS>MOLECULE
mol_data/noopt/geoms/mol2/8135.out
 23 25 0 0 0
SMALL
GASTEIGER

@<TRIPOS>ATOM
      1 C          -0.0089   -0.0179   -0.0000 C.ar    1  LIG1        0.1605
      2 N           1.3522   -0.0179   -0.0000 N.ar    1  LIG1       -0.1338
      3 C           1.1968    2.3931   -0.0000 C.ar    1  LIG1        0.2193
      4 N          -0.8254    1.0712   -0.0000 N.ar    1  LIG1       -0.1338
      5 N           1.9401    1.1968   -0.0000 N.ar    1  LIG1       -0.1243
      6 N          -0.2061    2.2702   -0.0001 N.ar    1  LIG1       -0.1243
      7 H          -0.5904   -1.1806   -0.0000 H       1  LIG1        0.1085
      8 C           1.7783    3.5558    0.0000 C.ar    1  LIG1        0.0880
      9 C           3.0980    3.8819   -0.0004 C.ar    1  LIG1       -0.0326
     10 C           3.1854    5.3112    0.0009 C.ar    1  LIG1       -0.0352
     11 C           1.9152    5.7957    0.0003 C.ar    1  LIG1        0.0536
     12 N           1.0506    4.7244    0.0002 N.ar    1  LIG1       -0.3512
     13 H           0.0585    4.7851   -0.0004 H       1  LIG1        0.1660
     14 H           4.0945    3.0470   -0.0003 H       1  LIG1        0.0640
     15 H           4.2761    6.0185    0.0021 H       1  LIG1        0.0639
     16 C           1.4796    7.0206    0.0008 C.ar    1  LIG1        0.0355
     17 C           2.2645    8.1522    0.0008 C.ar    1  LIG1       -0.0455
     18 C           1.4692    9.3432    0.0008 C.ar    1  LIG1       -0.0541
     19 C           0.1232    9.0519    0.0015 C.ar    1  LIG1       -0.0237
     20 S          -0.1485    7.4020    0.0016 S.2     1  LIG1       -0.0952
     21 H          -0.8414    9.9235    0.0023 H       1  LIG1        0.0693
     22 H           3.5644    8.1662    0.0006 H       1  LIG1        0.0629
     23 H           1.9802   10.5386    0.0000 H       1  LIG1        0.0623
@<TRIPOS>BOND
     1    13    12    1
     2     9    14    1
     3     9     8   ar
     4     9    10   ar
     5     6     3   ar
     6     6     4   ar
     7     2     5   ar
     8     2     1   ar
     9     3     5   ar
    10     3     8    1
    11     4     1   ar
    12     7     1    1
    13     8    12   ar
    14    23    18    1
    15    12    11   ar
    16    11    16    1
    17    11    10   ar
    18    22    17    1
    19    18    17   ar
    20    18    19   ar
    21    17    16   ar
    22    16    20   ar
    23    10    15    1
    24    19    20   ar
    25    19    21    1
