@<TRIPOS>MOLECULE
mol_data/noopt/geoms/mol2/8135-4.out
 33 36 0 0 0
SMALL
GASTEIGER

@<TRIPOS>ATOM
      1 C          -0.0089   -0.0179   -0.0000 C.ar    1  LIG1        0.1605
      2 N           1.3522   -0.0179   -0.0000 N.ar    1  LIG1       -0.1338
      3 C           1.1968    2.3931   -0.0000 C.ar    1  LIG1        0.2193
      4 N          -0.8254    1.0712   -0.0000 N.ar    1  LIG1       -0.1338
      5 N           1.9401    1.1968   -0.0000 N.ar    1  LIG1       -0.1243
      6 N          -0.2061    2.2702   -0.0001 N.ar    1  LIG1       -0.1243
      7 H          -0.5904   -1.1806   -0.0000 H       1  LIG1        0.1085
      8 C           1.7783    3.5558    0.0000 C.ar    1  LIG1        0.0880
      9 C           3.0980    3.8819   -0.0004 C.ar    1  LIG1       -0.0326
     10 C           3.1854    5.3112    0.0009 C.ar    1  LIG1       -0.0352
     11 C           1.9152    5.7957    0.0003 C.ar    1  LIG1        0.0537
     12 N           1.0506    4.7244    0.0002 N.ar    1  LIG1       -0.3512
     13 H           0.0585    4.7851   -0.0004 H       1  LIG1        0.1660
     14 H           4.0945    3.0470   -0.0003 H       1  LIG1        0.0640
     15 H           4.2761    6.0185    0.0021 H       1  LIG1        0.0639
     16 C           1.4796    7.0206    0.0008 C.ar    1  LIG1        0.0361
     17 C           0.1564    7.4025    0.0013 C.ar    1  LIG1       -0.0449
     18 C           0.0211    8.8283    0.0026 C.ar    1  LIG1       -0.0463
     19 C           1.2488    9.4523    0.0023 C.ar    1  LIG1        0.0200
     20 S           2.5013    8.3444    0.0011 S.2     1  LIG1       -0.0868
     21 H          -0.8604    6.5925    0.0009 H       1  LIG1        0.0630
     22 H          -1.1299    9.4326    0.0040 H       1  LIG1        0.0629
     23 C           2.7614   11.2456    0.0035 C.ar    1  LIG1       -0.0535
     24 C           2.9223   12.6447    0.0054 C.ar    1  LIG1       -0.0612
     25 C           1.4464   10.7371    0.0026 C.ar    1  LIG1       -0.0113
     26 C           1.8239   13.5015    0.0057 C.ar    1  LIG1       -0.0617
     27 H           3.9283   13.0583    0.0064 H       1  LIG1        0.0618
     28 C           0.3495   11.5920    0.0029 C.ar    1  LIG1       -0.0535
     29 C           0.5299   12.9791    0.0044 C.ar    1  LIG1       -0.0612
     30 H          -0.6546   11.1755    0.0023 H       1  LIG1        0.0624
     31 H           2.0090   14.7882    0.0074 H       1  LIG1        0.0618
     32 H           3.8246   10.4975    0.0031 H       1  LIG1        0.0624
     33 H          -0.4992   13.7733    0.0048 H       1  LIG1        0.0618
@<TRIPOS>BOND
     1    13    12    1
     2     9    14    1
     3     9     8   ar
     4     9    10   ar
     5     6     4   ar
     6     6     3   ar
     7     1     7    1
     8     1     4   ar
     9     1     2   ar
    10     8     3    1
    11     8    12   ar
    12     5     3   ar
    13     5     2   ar
    14    12    11   ar
    15    11    16    1
    16    11    10   ar
    17    16    20   ar
    18    16    17   ar
    19    21    17    1
    20    10    15    1
    21    20    19   ar
    22    17    18   ar
    23    30    28    1
    24    19    25    1
    25    19    18   ar
    26    25    28   ar
    27    25    23   ar
    28    18    22    1
    29    28    29   ar
    30    32    23    1
    31    23    24   ar
    32    29    33    1
    33    29    26   ar
    34    24    26   ar
    35    24    27    1
    36    26    31    1
