@<TRIPOS>MOLECULE
mol_data/noopt/geoms/mol2/81388.out
 28 31 0 0 0
SMALL
GASTEIGER

@<TRIPOS>ATOM
      1 C          -0.0089   -0.0179   -0.0000 C.ar    1  LIG1        0.1605
      2 N           1.3522   -0.0179   -0.0000 N.ar    1  LIG1       -0.1338
      3 C           1.1968    2.3931   -0.0000 C.ar    1  LIG1        0.2193
      4 N          -0.8254    1.0712   -0.0000 N.ar    1  LIG1       -0.1338
      5 N           1.9401    1.1968   -0.0000 N.ar    1  LIG1       -0.1243
      6 N          -0.2061    2.2702   -0.0001 N.ar    1  LIG1       -0.1243
      7 H          -0.5904   -1.1806   -0.0000 H       1  LIG1        0.1085
      8 C           1.7783    3.5558    0.0000 C.ar    1  LIG1        0.0880
      9 C           3.0980    3.8819   -0.0004 C.ar    1  LIG1       -0.0325
     10 C           3.1854    5.3112    0.0009 C.ar    1  LIG1       -0.0325
     11 C           1.9152    5.7957    0.0003 C.ar    1  LIG1        0.0880
     12 N           1.0506    4.7244    0.0002 N.ar    1  LIG1       -0.3491
     13 H           0.0585    4.7851   -0.0004 H       1  LIG1        0.1661
     14 H           4.0945    3.0470   -0.0003 H       1  LIG1        0.0640
     15 H           4.2761    6.0185    0.0021 H       1  LIG1        0.0640
     16 C           1.4796    7.0206    0.0008 C.ar    1  LIG1        0.2194
     17 N           2.4226    8.0021    0.0011 N.ar    1  LIG1       -0.1236
     18 C           0.5763    9.5604    0.0020 C.ar    1  LIG1        0.2435
     19 N           0.1286    7.1863    0.0011 N.ar    1  LIG1       -0.1236
     20 N           1.9539    9.2676    0.0017 N.ar    1  LIG1       -0.1218
     21 N          -0.3070    8.4636    0.0016 N.ar    1  LIG1       -0.1218
     22 C           0.1407   10.7852    0.0025 C.ar    1  LIG1        0.2434
     23 N           1.0836   11.7668    0.0028 N.ar    1  LIG1       -0.1224
     24 C          -0.7627   13.3250    0.0037 C.ar    1  LIG1        0.1605
     25 N          -1.2104   10.9509    0.0028 N.ar    1  LIG1       -0.1224
     26 N           0.6149   13.0323    0.0033 N.ar    1  LIG1       -0.1338
     27 N          -1.6460   12.2282    0.0032 N.ar    1  LIG1       -0.1338
     28 H          -1.1983   14.5499    0.0042 H       1  LIG1        0.1085
@<TRIPOS>BOND
     1    13    12    1
     2     9    14    1
     3     9     8   ar
     4     9    10   ar
     5     6     3   ar
     6     6     4   ar
     7     2     5   ar
     8     2     1   ar
     9     3     5   ar
    10     3     8    1
    11     4     1   ar
    12     7     1    1
    13     8    12   ar
    14    12    11   ar
    15    11    16    1
    16    11    10   ar
    17    16    19   ar
    18    16    17   ar
    19    10    15    1
    20    19    21   ar
    21    17    20   ar
    22    21    18   ar
    23    20    18   ar
    24    18    22    1
    25    22    23   ar
    26    22    25   ar
    27    23    26   ar
    28    25    27   ar
    29    27    24   ar
    30    26    24   ar
    31    24    28    1
