@<TRIPOS>MOLECULE
mol_data/noopt/geoms/mol2/8138-5.out
 29 32 0 0 0
SMALL
GASTEIGER

@<TRIPOS>ATOM
      1 C          -0.0089   -0.0179   -0.0000 C.ar    1  LIG1        0.1605
      2 N           1.3522   -0.0179   -0.0000 N.ar    1  LIG1       -0.1338
      3 C           1.1968    2.3931   -0.0000 C.ar    1  LIG1        0.2193
      4 N          -0.8254    1.0712   -0.0000 N.ar    1  LIG1       -0.1338
      5 N           1.9401    1.1968   -0.0000 N.ar    1  LIG1       -0.1243
      6 N          -0.2061    2.2702   -0.0001 N.ar    1  LIG1       -0.1243
      7 H          -0.5904   -1.1806   -0.0000 H       1  LIG1        0.1085
      8 C           1.7783    3.5558    0.0000 C.ar    1  LIG1        0.0880
      9 C           3.0980    3.8819   -0.0004 C.ar    1  LIG1       -0.0325
     10 C           3.1854    5.3112    0.0009 C.ar    1  LIG1       -0.0325
     11 C           1.9152    5.7957    0.0003 C.ar    1  LIG1        0.0880
     12 N           1.0506    4.7244    0.0002 N.ar    1  LIG1       -0.3491
     13 H           0.0585    4.7851   -0.0004 H       1  LIG1        0.1661
     14 H           4.0945    3.0470   -0.0003 H       1  LIG1        0.0640
     15 H           4.2761    6.0185    0.0021 H       1  LIG1        0.0640
     16 C           1.4796    7.0206    0.0008 C.ar    1  LIG1        0.2194
     17 N           0.1286    7.1863    0.0011 N.ar    1  LIG1       -0.1237
     18 C           0.5764    9.5604    0.0020 C.ar    1  LIG1        0.2099
     19 N           2.4226    8.0022    0.0011 N.ar    1  LIG1       -0.1237
     20 N          -0.3070    8.4635    0.0017 N.ar    1  LIG1       -0.1246
     21 N           1.9539    9.2676    0.0018 N.ar    1  LIG1       -0.1246
     22 C           0.1408   10.7853    0.0025 C.ar    1  LIG1        0.0598
     23 C           0.9257   11.9169    0.0025 C.ar    1  LIG1       -0.0438
     24 C           0.1304   13.1080    0.0024 C.ar    1  LIG1       -0.0540
     25 C          -1.2156   12.8166    0.0032 C.ar    1  LIG1       -0.0236
     26 S          -1.4873   11.1667    0.0033 S.2     1  LIG1       -0.0934
     27 H          -2.1801   13.6883    0.0040 H       1  LIG1        0.0693
     28 H           2.2257   11.9309    0.0023 H       1  LIG1        0.0630
     29 H           0.6414   14.3033    0.0017 H       1  LIG1        0.0623
@<TRIPOS>BOND
     1    13    12    1
     2     9    14    1
     3     9     8   ar
     4     9    10   ar
     5     6     3   ar
     6     6     4   ar
     7     2     5   ar
     8     2     1   ar
     9     3     5   ar
    10     3     8    1
    11     4     1   ar
    12     7     1    1
    13     8    12   ar
    14    12    11   ar
    15    11    16    1
    16    11    10   ar
    17    16    19   ar
    18    16    17   ar
    19    10    15    1
    20    19    21   ar
    21    17    20   ar
    22    20    18   ar
    23    29    24    1
    24    21    18   ar
    25    18    22    1
    26    28    23    1
    27    24    23   ar
    28    24    25   ar
    29    23    22   ar
    30    22    26   ar
    31    25    26   ar
    32    25    27    1
