@<TRIPOS>MOLECULE
mol_data/noopt/geoms/mol2/84-.out
 18 19 0 0 0
SMALL
GASTEIGER

@<TRIPOS>ATOM
      1 C          -0.0089   -0.0179   -0.0000 C.ar    1  LIG1        0.1605
      2 N           1.3522   -0.0179   -0.0000 N.ar    1  LIG1       -0.1339
      3 C           1.1968    2.3931   -0.0000 C.ar    1  LIG1        0.2033
      4 N          -0.8254    1.0712   -0.0000 N.ar    1  LIG1       -0.1339
      5 N           1.9401    1.1968   -0.0000 N.ar    1  LIG1       -0.1258
      6 N          -0.2061    2.2702   -0.0001 N.ar    1  LIG1       -0.1258
      7 H          -0.5904   -1.1806   -0.0000 H       1  LIG1        0.1085
      8 C           0.9992    4.7308   -0.0007 C.ar    1  LIG1       -0.0509
      9 C           1.6766    5.9655   -0.0023 C.ar    1  LIG1       -0.0611
     10 C           1.7783    3.5557   -0.0000 C.ar    1  LIG1        0.0226
     11 C           3.0682    6.0297   -0.0024 C.ar    1  LIG1       -0.0617
     12 H           1.0947    6.8845   -0.0031 H       1  LIG1        0.0618
     13 C           3.1675    3.6193   -0.0001 C.ar    1  LIG1       -0.0509
     14 C           3.8221    4.8554   -0.0012 C.ar    1  LIG1       -0.0611
     15 H           3.7461    2.6990    0.0004 H       1  LIG1        0.0625
     16 H           3.6609    7.1867   -0.0037 H       1  LIG1        0.0618
     17 H          -0.3008    4.7349   -0.0004 H       1  LIG1        0.0625
     18 H           5.1210    4.9087   -0.0015 H       1  LIG1        0.0618
@<TRIPOS>BOND
     1    16    11    1
     2    12     9    1
     3    11     9   ar
     4    11    14   ar
     5     9     8   ar
     6    18    14    1
     7    14    13   ar
     8     8    17    1
     9     8    10   ar
    10    13    10   ar
    11    13    15    1
    12     6     4   ar
    13     6     3   ar
    14    10     3    1
    15     1     7    1
    16     1     4   ar
    17     1     2   ar
    18     5     3   ar
    19     5     2   ar
