@<TRIPOS>MOLECULE
mol_data/noopt/geoms/mol2/84-12.out
 25 27 0 0 0
SMALL
GASTEIGER

@<TRIPOS>ATOM
      1 C          -0.0089   -0.0179   -0.0000 C.ar    1  LIG1        0.1605
      2 N           1.3522   -0.0179   -0.0000 N.ar    1  LIG1       -0.1339
      3 C           1.1968    2.3931   -0.0000 C.ar    1  LIG1        0.2033
      4 N          -0.8254    1.0712   -0.0000 N.ar    1  LIG1       -0.1339
      5 N           1.9401    1.1968   -0.0000 N.ar    1  LIG1       -0.1258
      6 N          -0.2061    2.2702   -0.0001 N.ar    1  LIG1       -0.1258
      7 H          -0.5904   -1.1806   -0.0000 H       1  LIG1        0.1085
      8 C           0.9992    4.7308   -0.0007 C.ar    1  LIG1       -0.0503
      9 C           1.6766    5.9655   -0.0023 C.ar    1  LIG1       -0.0504
     10 C           1.7783    3.5557   -0.0000 C.ar    1  LIG1        0.0227
     11 C           3.0682    6.0297   -0.0024 C.ar    1  LIG1        0.0173
     12 H           1.0947    6.8845   -0.0031 H       1  LIG1        0.0625
     13 C           3.1675    3.6193   -0.0001 C.ar    1  LIG1       -0.0503
     14 C           3.8221    4.8554   -0.0012 C.ar    1  LIG1       -0.0504
     15 H           3.7461    2.6990    0.0004 H       1  LIG1        0.0625
     16 H          -0.3008    4.7349   -0.0004 H       1  LIG1        0.0625
     17 H           5.1210    4.9087   -0.0015 H       1  LIG1        0.0625
     18 C           3.6609    7.1867   -0.0037 C.ar    1  LIG1        0.1348
     19 C           4.9703    7.6208   -0.0047 C.ar    1  LIG1       -0.0159
     20 C           4.9275    9.0682   -0.0060 C.ar    1  LIG1       -0.0233
     21 C           3.5941    9.4227   -0.0058 C.ar    1  LIG1        0.0926
     22 O           2.7935    8.2800   -0.0045 O.2     1  LIG1       -0.4629
     23 H           2.9334   10.5423   -0.0065 H       1  LIG1        0.1029
     24 H           6.0491    6.8953   -0.0044 H       1  LIG1        0.0655
     25 H           5.9610    9.8568   -0.0071 H       1  LIG1        0.0649
@<TRIPOS>BOND
     1    25    20    1
     2    23    21    1
     3    20    21   ar
     4    20    19   ar
     5    21    22   ar
     6    19    24    1
     7    19    18   ar
     8    22    18   ar
     9    18    11    1
    10    12     9    1
    11    11     9   ar
    12    11    14   ar
    13     9     8   ar
    14    17    14    1
    15    14    13   ar
    16     8    16    1
    17     8    10   ar
    18    13    10   ar
    19    13    15    1
    20     6     4   ar
    21     6     3   ar
    22     1     7    1
    23     1     4   ar
    24     1     2   ar
    25    10     3    1
    26     5     3   ar
    27     5     2   ar
