@<TRIPOS>MOLECULE
mol_data/noopt/geoms/mol2/84-13-4.out
 36 39 0 0 0
SMALL
GASTEIGER

@<TRIPOS>ATOM
      1 C          -0.0089   -0.0179   -0.0000 C.ar    1  LIG1        0.1605
      2 N           1.3522   -0.0179   -0.0000 N.ar    1  LIG1       -0.1339
      3 C           1.1968    2.3931   -0.0000 C.ar    1  LIG1        0.2033
      4 N          -0.8254    1.0712   -0.0000 N.ar    1  LIG1       -0.1339
      5 N           1.9401    1.1968   -0.0000 N.ar    1  LIG1       -0.1258
      6 N          -0.2061    2.2702   -0.0001 N.ar    1  LIG1       -0.1258
      7 H          -0.5904   -1.1806   -0.0000 H       1  LIG1        0.1085
      8 C           0.9992    4.7308   -0.0007 C.ar    1  LIG1       -0.0503
      9 C           1.6766    5.9655   -0.0023 C.ar    1  LIG1       -0.0520
     10 C           1.7783    3.5557   -0.0000 C.ar    1  LIG1        0.0227
     11 C           3.0682    6.0297   -0.0024 C.ar    1  LIG1       -0.0017
     12 H           1.0947    6.8845   -0.0031 H       1  LIG1        0.0624
     13 C           3.1675    3.6193   -0.0001 C.ar    1  LIG1       -0.0503
     14 C           3.8221    4.8554   -0.0012 C.ar    1  LIG1       -0.0520
     15 H           3.7461    2.6990    0.0004 H       1  LIG1        0.0625
     16 H          -0.3008    4.7349   -0.0004 H       1  LIG1        0.0625
     17 H           5.1210    4.9087   -0.0015 H       1  LIG1        0.0624
     18 C           3.6609    7.1867   -0.0037 C.ar    1  LIG1        0.0469
     19 C           3.1424    8.4433   -0.0041 C.ar    1  LIG1       -0.0358
     20 C           4.2426    9.3599   -0.0068 C.ar    1  LIG1       -0.0358
     21 C           5.3850    8.6232   -0.0062 C.ar    1  LIG1        0.0469
     22 N           5.0335    7.2921   -0.0048 N.ar    1  LIG1       -0.3542
     23 H           5.6698    6.5285   -0.0039 H       1  LIG1        0.1659
     24 H           1.8796    8.7521   -0.0037 H       1  LIG1        0.0639
     25 H           4.1669   10.6577   -0.0089 H       1  LIG1        0.0639
     26 C           7.6545    8.0287   -0.0078 C.ar    1  LIG1       -0.0526
     27 C           8.9868    8.4850   -0.0080 C.ar    1  LIG1       -0.0611
     28 C           6.6300    8.9973   -0.0078 C.ar    1  LIG1       -0.0017
     29 C           9.2881    9.8451   -0.0087 C.ar    1  LIG1       -0.0617
     30 H           9.7928    7.7546   -0.0079 H       1  LIG1        0.0618
     31 C           6.9302   10.3552   -0.0084 C.ar    1  LIG1       -0.0526
     32 C           8.2600   10.7887   -0.0090 C.ar    1  LIG1       -0.0611
     33 H           6.1224   11.0826   -0.0083 H       1  LIG1        0.0624
     34 H          10.5294   10.2313   -0.0090 H       1  LIG1        0.0618
     35 H           7.4363    6.7471   -0.0075 H       1  LIG1        0.0624
     36 H           8.5346   12.0594   -0.0095 H       1  LIG1        0.0618
@<TRIPOS>BOND
     1    36    32    1
     2    32    29   ar
     3    32    31   ar
     4    34    29    1
     5    25    20    1
     6    29    27   ar
     7    31    33    1
     8    31    28   ar
     9    27    30    1
    10    27    26   ar
    11    26    28   ar
    12    26    35    1
    13    28    21    1
    14    20    21   ar
    15    20    19   ar
    16    21    22   ar
    17    22    23    1
    18    22    18   ar
    19    19    18   ar
    20    19    24    1
    21    18    11    1
    22    12     9    1
    23    11     9   ar
    24    11    14   ar
    25     9     8   ar
    26    17    14    1
    27    14    13   ar
    28     8    16    1
    29     8    10   ar
    30    13    10   ar
    31    13    15    1
    32     6     4   ar
    33     6     3   ar
    34    10     3    1
    35     1     7    1
    36     1     4   ar
    37     1     2   ar
    38     5     3   ar
    39     5     2   ar
