@<TRIPOS>MOLECULE
mol_data/noopt/geoms/mol2/84-128.out
 31 34 0 0 0
SMALL
GASTEIGER

@<TRIPOS>ATOM
      1 C          -0.0089   -0.0179   -0.0000 C.ar    1  LIG1        0.1605
      2 N           1.3522   -0.0179   -0.0000 N.ar    1  LIG1       -0.1339
      3 C           1.1968    2.3931   -0.0000 C.ar    1  LIG1        0.2033
      4 N          -0.8254    1.0712   -0.0000 N.ar    1  LIG1       -0.1339
      5 N           1.9401    1.1968   -0.0000 N.ar    1  LIG1       -0.1258
      6 N          -0.2061    2.2702   -0.0001 N.ar    1  LIG1       -0.1258
      7 H          -0.5904   -1.1806   -0.0000 H       1  LIG1        0.1085
      8 C           0.9992    4.7308   -0.0007 C.ar    1  LIG1       -0.0503
      9 C           1.6766    5.9655   -0.0023 C.ar    1  LIG1       -0.0504
     10 C           1.7783    3.5557   -0.0000 C.ar    1  LIG1        0.0227
     11 C           3.0682    6.0297   -0.0024 C.ar    1  LIG1        0.0173
     12 H           1.0947    6.8845   -0.0031 H       1  LIG1        0.0625
     13 C           3.1675    3.6193   -0.0001 C.ar    1  LIG1       -0.0503
     14 C           3.8221    4.8554   -0.0012 C.ar    1  LIG1       -0.0504
     15 H           3.7461    2.6990    0.0004 H       1  LIG1        0.0625
     16 H          -0.3008    4.7349   -0.0004 H       1  LIG1        0.0625
     17 H           5.1210    4.9087   -0.0015 H       1  LIG1        0.0625
     18 C           3.6609    7.1867   -0.0037 C.ar    1  LIG1        0.1358
     19 C           4.9703    7.6208   -0.0047 C.ar    1  LIG1       -0.0151
     20 C           4.9275    9.0682   -0.0060 C.ar    1  LIG1       -0.0120
     21 C           3.5941    9.4227   -0.0058 C.ar    1  LIG1        0.1760
     22 O           2.7935    8.2800   -0.0045 O.2     1  LIG1       -0.4516
     23 H           6.0491    6.8953   -0.0044 H       1  LIG1        0.0656
     24 H           5.9610    9.8568   -0.0071 H       1  LIG1        0.0657
     25 C           2.9334   10.5423   -0.0065 C.ar    1  LIG1        0.2381
     26 N           3.6723   11.6854   -0.0068 N.ar    1  LIG1       -0.1226
     27 C           1.5631   12.8637   -0.0079 C.ar    1  LIG1        0.1605
     28 N           1.5755   10.4479   -0.0068 N.ar    1  LIG1       -0.1226
     29 N           2.9713   12.8385   -0.0075 N.ar    1  LIG1       -0.1338
     30 N           0.9047   11.6189   -0.0076 N.ar    1  LIG1       -0.1338
     31 H           0.9024   13.9833   -0.0086 H       1  LIG1        0.1085
@<TRIPOS>BOND
     1    31    27    1
     2    27    30   ar
     3    27    29   ar
     4    30    28   ar
     5    29    26   ar
     6    24    20    1
     7    28    25   ar
     8    26    25   ar
     9    25    21    1
    10    20    21   ar
    11    20    19   ar
    12    21    22   ar
    13    19    23    1
    14    19    18   ar
    15    22    18   ar
    16    18    11    1
    17    12     9    1
    18    11     9   ar
    19    11    14   ar
    20     9     8   ar
    21    17    14    1
    22    14    13   ar
    23     8    16    1
    24     8    10   ar
    25    13    10   ar
    26    13    15    1
    27     6     4   ar
    28     6     3   ar
    29     1     7    1
    30     1     4   ar
    31     1     2   ar
    32    10     3    1
    33     5     3   ar
    34     5     2   ar
