@<TRIPOS>MOLECULE
mol_data/noopt/geoms/mol2/84-13.out
 26 28 0 0 0
SMALL
GASTEIGER

@<TRIPOS>ATOM
      1 C          -0.0089   -0.0179   -0.0000 C.ar    1  LIG1        0.1605
      2 N           1.3522   -0.0179   -0.0000 N.ar    1  LIG1       -0.1339
      3 C           1.1968    2.3931   -0.0000 C.ar    1  LIG1        0.2033
      4 N          -0.8254    1.0712   -0.0000 N.ar    1  LIG1       -0.1339
      5 N           1.9401    1.1968   -0.0000 N.ar    1  LIG1       -0.1258
      6 N          -0.2061    2.2702   -0.0001 N.ar    1  LIG1       -0.1258
      7 H          -0.5904   -1.1806   -0.0000 H       1  LIG1        0.1085
      8 C           0.9992    4.7308   -0.0007 C.ar    1  LIG1       -0.0503
      9 C           1.6766    5.9655   -0.0023 C.ar    1  LIG1       -0.0520
     10 C           1.7783    3.5557   -0.0000 C.ar    1  LIG1        0.0227
     11 C           3.0682    6.0297   -0.0024 C.ar    1  LIG1       -0.0017
     12 H           1.0947    6.8845   -0.0031 H       1  LIG1        0.0624
     13 C           3.1675    3.6193   -0.0001 C.ar    1  LIG1       -0.0503
     14 C           3.8221    4.8554   -0.0012 C.ar    1  LIG1       -0.0520
     15 H           3.7461    2.6990    0.0004 H       1  LIG1        0.0625
     16 H          -0.3008    4.7349   -0.0004 H       1  LIG1        0.0625
     17 H           5.1210    4.9087   -0.0015 H       1  LIG1        0.0624
     18 C           3.6609    7.1867   -0.0037 C.ar    1  LIG1        0.0465
     19 C           4.9837    7.5000   -0.0049 C.ar    1  LIG1       -0.0364
     20 C           5.0850    8.9284   -0.0050 C.ar    1  LIG1       -0.0438
     21 C           3.8196    9.4252   -0.0055 C.ar    1  LIG1        0.0022
     22 N           2.9446    8.3623   -0.0042 N.ar    1  LIG1       -0.3607
     23 H           1.9531    8.4326   -0.0044 H       1  LIG1        0.1653
     24 H           3.3959   10.6542   -0.0058 H       1  LIG1        0.0807
     25 H           5.9721    6.6554   -0.0046 H       1  LIG1        0.0639
     26 H           6.1825    9.6251   -0.0049 H       1  LIG1        0.0633
@<TRIPOS>BOND
     1    24    21    1
     2    21    20   ar
     3    21    22   ar
     4    20    26    1
     5    20    19   ar
     6    19    25    1
     7    19    18   ar
     8    23    22    1
     9    22    18   ar
    10    18    11    1
    11    12     9    1
    12    11     9   ar
    13    11    14   ar
    14     9     8   ar
    15    17    14    1
    16    14    13   ar
    17     8    16    1
    18     8    10   ar
    19    13    10   ar
    20    13    15    1
    21     6     4   ar
    22     6     3   ar
    23     1     7    1
    24     1     4   ar
    25     1     2   ar
    26    10     3    1
    27     5     3   ar
    28     5     2   ar
