@<TRIPOS>MOLECULE
mol_data/noopt/geoms/mol2/84-13-.out
 26 28 0 0 0
SMALL
GASTEIGER

@<TRIPOS>ATOM
      1 C          -0.0089   -0.0179   -0.0000 C.ar    1  LIG1        0.1605
      2 N           1.3522   -0.0179   -0.0000 N.ar    1  LIG1       -0.1339
      3 C           1.1968    2.3931   -0.0000 C.ar    1  LIG1        0.2033
      4 N          -0.8254    1.0712   -0.0000 N.ar    1  LIG1       -0.1339
      5 N           1.9401    1.1968   -0.0000 N.ar    1  LIG1       -0.1258
      6 N          -0.2061    2.2702   -0.0001 N.ar    1  LIG1       -0.1258
      7 H          -0.5904   -1.1806   -0.0000 H       1  LIG1        0.1085
      8 C           0.9992    4.7308   -0.0007 C.ar    1  LIG1       -0.0503
      9 C           1.6766    5.9655   -0.0023 C.ar    1  LIG1       -0.0520
     10 C           1.7783    3.5557   -0.0000 C.ar    1  LIG1        0.0227
     11 C           3.0682    6.0297   -0.0024 C.ar    1  LIG1       -0.0017
     12 H           1.0947    6.8845   -0.0031 H       1  LIG1        0.0624
     13 C           3.1675    3.6193   -0.0001 C.ar    1  LIG1       -0.0503
     14 C           3.8221    4.8554   -0.0012 C.ar    1  LIG1       -0.0520
     15 H           3.7461    2.6990    0.0004 H       1  LIG1        0.0625
     16 H          -0.3008    4.7349   -0.0004 H       1  LIG1        0.0625
     17 H           5.1210    4.9087   -0.0015 H       1  LIG1        0.0624
     18 C           3.6609    7.1867   -0.0037 C.ar    1  LIG1        0.0465
     19 C           3.1424    8.4433   -0.0041 C.ar    1  LIG1       -0.0364
     20 C           4.2426    9.3599   -0.0068 C.ar    1  LIG1       -0.0438
     21 C           5.3850    8.6232   -0.0062 C.ar    1  LIG1        0.0022
     22 N           5.0335    7.2921   -0.0048 N.ar    1  LIG1       -0.3607
     23 H           5.6698    6.5285   -0.0039 H       1  LIG1        0.1653
     24 H           6.6300    8.9973   -0.0078 H       1  LIG1        0.0807
     25 H           1.8796    8.7521   -0.0037 H       1  LIG1        0.0639
     26 H           4.1669   10.6577   -0.0089 H       1  LIG1        0.0633
@<TRIPOS>BOND
     1    26    20    1
     2    24    21    1
     3    20    21   ar
     4    20    19   ar
     5    21    22   ar
     6    22    23    1
     7    22    18   ar
     8    19    18   ar
     9    19    25    1
    10    18    11    1
    11    12     9    1
    12    11     9   ar
    13    11    14   ar
    14     9     8   ar
    15    17    14    1
    16    14    13   ar
    17     8    16    1
    18     8    10   ar
    19    13    10   ar
    20    13    15    1
    21     6     4   ar
    22     6     3   ar
    23     1     7    1
    24     1     4   ar
    25     1     2   ar
    26    10     3    1
    27     5     3   ar
    28     5     2   ar
