@<TRIPOS>MOLECULE
mol_data/noopt/geoms/mol2/84-4-.out
 28 30 0 0 0
SMALL
GASTEIGER

@<TRIPOS>ATOM
      1 C          -0.0089   -0.0179   -0.0000 C.ar    1  LIG1        0.1605
      2 N           1.3522   -0.0179   -0.0000 N.ar    1  LIG1       -0.1339
      3 C           1.1968    2.3931   -0.0000 C.ar    1  LIG1        0.2033
      4 N          -0.8254    1.0712   -0.0000 N.ar    1  LIG1       -0.1339
      5 N           1.9401    1.1968   -0.0000 N.ar    1  LIG1       -0.1258
      6 N          -0.2061    2.2702   -0.0001 N.ar    1  LIG1       -0.1258
      7 H          -0.5904   -1.1806   -0.0000 H       1  LIG1        0.1085
      8 C           0.9992    4.7308   -0.0007 C.ar    1  LIG1       -0.0504
      9 C           1.6766    5.9655   -0.0023 C.ar    1  LIG1       -0.0534
     10 C           1.7783    3.5557   -0.0000 C.ar    1  LIG1        0.0227
     11 C           3.0682    6.0297   -0.0024 C.ar    1  LIG1       -0.0178
     12 H           1.0947    6.8845   -0.0031 H       1  LIG1        0.0624
     13 C           3.1675    3.6193   -0.0001 C.ar    1  LIG1       -0.0504
     14 C           3.8221    4.8554   -0.0012 C.ar    1  LIG1       -0.0534
     15 H           3.7461    2.6990    0.0004 H       1  LIG1        0.0625
     16 H          -0.3008    4.7349   -0.0004 H       1  LIG1        0.0625
     17 H           5.1210    4.9087   -0.0015 H       1  LIG1        0.0624
     18 C           2.8932    8.3692   -0.0052 C.ar    1  LIG1       -0.0540
     19 C           3.5826    9.5972   -0.0081 C.ar    1  LIG1       -0.0612
     20 C           3.6609    7.1866   -0.0037 C.ar    1  LIG1       -0.0179
     21 C           4.9747    9.6479   -0.0089 C.ar    1  LIG1       -0.0617
     22 H           3.0097   10.5218   -0.0094 H       1  LIG1        0.0618
     23 C           5.0507    7.2367   -0.0045 C.ar    1  LIG1       -0.0540
     24 C           5.7172    8.4665   -0.0070 C.ar    1  LIG1       -0.0612
     25 H           5.6203    6.3109   -0.0035 H       1  LIG1        0.0624
     26 H           5.5787   10.7992   -0.0115 H       1  LIG1        0.0618
     27 H           1.5933    8.3859   -0.0042 H       1  LIG1        0.0624
     28 H           7.0166    8.5071   -0.0079 H       1  LIG1        0.0618
@<TRIPOS>BOND
     1    26    21    1
     2    22    19    1
     3    21    19   ar
     4    21    24   ar
     5    19    18   ar
     6    28    24    1
     7    24    23   ar
     8    18    27    1
     9    18    20   ar
    10    23    20   ar
    11    23    25    1
    12    20    11    1
    13    12     9    1
    14    11     9   ar
    15    11    14   ar
    16     9     8   ar
    17    17    14    1
    18    14    13   ar
    19     8    16    1
    20     8    10   ar
    21    13    10   ar
    22    13    15    1
    23     6     4   ar
    24     6     3   ar
    25     1     7    1
    26     1     4   ar
    27     1     2   ar
    28    10     3    1
    29     5     3   ar
    30     5     2   ar
