@<TRIPOS>MOLECULE
mol_data/noopt/geoms/mol2/84-4-8.out
 34 37 0 0 0
SMALL
GASTEIGER

@<TRIPOS>ATOM
      1 C          -0.0089   -0.0179   -0.0000 C.ar    1  LIG1        0.1605
      2 N           1.3522   -0.0179   -0.0000 N.ar    1  LIG1       -0.1339
      3 C           1.1968    2.3931   -0.0000 C.ar    1  LIG1        0.2033
      4 N          -0.8254    1.0712   -0.0000 N.ar    1  LIG1       -0.1339
      5 N           1.9401    1.1968   -0.0000 N.ar    1  LIG1       -0.1258
      6 N          -0.2061    2.2702   -0.0001 N.ar    1  LIG1       -0.1258
      7 H          -0.5904   -1.1806   -0.0000 H       1  LIG1        0.1085
      8 C           0.9992    4.7308   -0.0007 C.ar    1  LIG1       -0.0504
      9 C           1.6766    5.9655   -0.0023 C.ar    1  LIG1       -0.0534
     10 C           1.7783    3.5557   -0.0000 C.ar    1  LIG1        0.0227
     11 C           3.0682    6.0297   -0.0024 C.ar    1  LIG1       -0.0178
     12 H           1.0947    6.8845   -0.0031 H       1  LIG1        0.0624
     13 C           3.1675    3.6193   -0.0001 C.ar    1  LIG1       -0.0504
     14 C           3.8221    4.8554   -0.0012 C.ar    1  LIG1       -0.0534
     15 H           3.7461    2.6990    0.0004 H       1  LIG1        0.0625
     16 H          -0.3008    4.7349   -0.0004 H       1  LIG1        0.0625
     17 H           5.1210    4.9087   -0.0015 H       1  LIG1        0.0624
     18 C           2.8932    8.3692   -0.0052 C.ar    1  LIG1       -0.0534
     19 C           3.5826    9.5972   -0.0081 C.ar    1  LIG1       -0.0504
     20 C           3.6609    7.1866   -0.0037 C.ar    1  LIG1       -0.0178
     21 C           4.9747    9.6479   -0.0089 C.ar    1  LIG1        0.0227
     22 H           3.0097   10.5218   -0.0094 H       1  LIG1        0.0625
     23 C           5.0507    7.2367   -0.0045 C.ar    1  LIG1       -0.0534
     24 C           5.7172    8.4665   -0.0070 C.ar    1  LIG1       -0.0504
     25 H           5.6203    6.3109   -0.0035 H       1  LIG1        0.0624
     26 H           1.5933    8.3859   -0.0042 H       1  LIG1        0.0624
     27 H           7.0166    8.5071   -0.0079 H       1  LIG1        0.0625
     28 C           5.5787   10.7991   -0.0115 C.ar    1  LIG1        0.2033
     29 N           6.9395   10.7727   -0.0127 N.ar    1  LIG1       -0.1258
     30 C           6.8309   13.1863   -0.0169 C.ar    1  LIG1        0.1605
     31 N           4.7835   11.9039   -0.0127 N.ar    1  LIG1       -0.1258
     32 N           7.5509   11.9758   -0.0154 N.ar    1  LIG1       -0.1339
     33 N           5.4259   13.0906   -0.0155 N.ar    1  LIG1       -0.1339
     34 H           7.4349   14.3375   -0.0195 H       1  LIG1        0.1085
@<TRIPOS>BOND
     1    34    30    1
     2    30    33   ar
     3    30    32   ar
     4    33    31   ar
     5    32    29   ar
     6    31    28   ar
     7    29    28   ar
     8    28    21    1
     9    22    19    1
    10    21    19   ar
    11    21    24   ar
    12    19    18   ar
    13    27    24    1
    14    24    23   ar
    15    18    26    1
    16    18    20   ar
    17    23    20   ar
    18    23    25    1
    19    20    11    1
    20    12     9    1
    21    11     9   ar
    22    11    14   ar
    23     9     8   ar
    24    17    14    1
    25    14    13   ar
    26     8    16    1
    27     8    10   ar
    28    13    10   ar
    29    13    15    1
    30     6     4   ar
    31     6     3   ar
    32     4     1   ar
    33     3     5   ar
    34     3    10    1
    35     5     2   ar
    36     2     1   ar
    37     7     1    1
