@<TRIPOS>MOLECULE
mol_data/noopt/geoms/mol2/84-513-.out
 33 36 0 0 0
SMALL
GASTEIGER

@<TRIPOS>ATOM
      1 C          -0.0089   -0.0179   -0.0000 C.ar    1  LIG1        0.1605
      2 N           1.3522   -0.0179   -0.0000 N.ar    1  LIG1       -0.1339
      3 C           1.1968    2.3931   -0.0000 C.ar    1  LIG1        0.2033
      4 N          -0.8254    1.0712   -0.0000 N.ar    1  LIG1       -0.1339
      5 N           1.9401    1.1968   -0.0000 N.ar    1  LIG1       -0.1258
      6 N          -0.2061    2.2702   -0.0001 N.ar    1  LIG1       -0.1258
      7 H          -0.5904   -1.1806   -0.0000 H       1  LIG1        0.1085
      8 C           0.9992    4.7308   -0.0007 C.ar    1  LIG1       -0.0503
      9 C           1.6766    5.9655   -0.0023 C.ar    1  LIG1       -0.0529
     10 C           1.7783    3.5557   -0.0000 C.ar    1  LIG1        0.0227
     11 C           3.0682    6.0297   -0.0024 C.ar    1  LIG1       -0.0113
     12 H           1.0947    6.8845   -0.0031 H       1  LIG1        0.0624
     13 C           3.1675    3.6193   -0.0001 C.ar    1  LIG1       -0.0503
     14 C           3.8221    4.8554   -0.0012 C.ar    1  LIG1       -0.0529
     15 H           3.7461    2.6990    0.0004 H       1  LIG1        0.0625
     16 H          -0.3008    4.7349   -0.0004 H       1  LIG1        0.0625
     17 H           5.1210    4.9087   -0.0015 H       1  LIG1        0.0624
     18 C           3.6609    7.1867   -0.0037 C.ar    1  LIG1        0.0200
     19 C           5.0228    7.3915   -0.0049 C.ar    1  LIG1       -0.0463
     20 C           5.3443    8.7871   -0.0069 C.ar    1  LIG1       -0.0449
     21 C           4.2092    9.5670   -0.0064 C.ar    1  LIG1        0.0360
     22 S           2.8220    8.6332   -0.0042 S.2     1  LIG1       -0.0868
     23 H           5.9244    6.4549   -0.0045 H       1  LIG1        0.0629
     24 H           6.5647    9.2349   -0.0090 H       1  LIG1        0.0630
     25 C           4.1821   10.8667   -0.0072 C.ar    1  LIG1        0.0531
     26 C           3.1295   11.7269   -0.0073 C.ar    1  LIG1       -0.0359
     27 C           3.6632   13.0558   -0.0096 C.ar    1  LIG1       -0.0438
     28 C           5.0184   12.9492   -0.0090 C.ar    1  LIG1        0.0022
     29 N           5.3404   11.6107   -0.0081 N.ar    1  LIG1       -0.3603
     30 H           6.2628   11.2402   -0.0074 H       1  LIG1        0.1653
     31 H           5.9369   13.8691   -0.0103 H       1  LIG1        0.0807
     32 H           1.8714   11.3997   -0.0070 H       1  LIG1        0.0639
     33 H           2.9809   14.1623   -0.0114 H       1  LIG1        0.0633
@<TRIPOS>BOND
     1    33    27    1
     2    31    28    1
     3    27    28   ar
     4    27    26   ar
     5    28    29   ar
     6    24    20    1
     7    29    30    1
     8    29    25   ar
     9    26    25   ar
    10    26    32    1
    11    25    21    1
    12    20    21   ar
    13    20    19   ar
    14    21    22   ar
    15    19    23    1
    16    19    18   ar
    17    22    18   ar
    18    18    11    1
    19    12     9    1
    20    11     9   ar
    21    11    14   ar
    22     9     8   ar
    23    17    14    1
    24    14    13   ar
    25     8    16    1
    26     8    10   ar
    27    13    10   ar
    28    13    15    1
    29     6     4   ar
    30     6     3   ar
    31     1     7    1
    32     1     4   ar
    33     1     2   ar
    34    10     3    1
    35     5     3   ar
    36     5     2   ar
