@<TRIPOS>MOLECULE
mol_data/noopt/geoms/mol2/84-5-.out
 25 27 0 0 0
SMALL
GASTEIGER

@<TRIPOS>ATOM
      1 C          -0.0089   -0.0179   -0.0000 C.ar    1  LIG1        0.1605
      2 N           1.3522   -0.0179   -0.0000 N.ar    1  LIG1       -0.1339
      3 C           1.1968    2.3931   -0.0000 C.ar    1  LIG1        0.2033
      4 N          -0.8254    1.0712   -0.0000 N.ar    1  LIG1       -0.1339
      5 N           1.9401    1.1968   -0.0000 N.ar    1  LIG1       -0.1258
      6 N          -0.2061    2.2702   -0.0001 N.ar    1  LIG1       -0.1258
      7 H          -0.5904   -1.1806   -0.0000 H       1  LIG1        0.1085
      8 C           0.9992    4.7308   -0.0007 C.ar    1  LIG1       -0.0503
      9 C           1.6766    5.9655   -0.0023 C.ar    1  LIG1       -0.0529
     10 C           1.7783    3.5557   -0.0000 C.ar    1  LIG1        0.0227
     11 C           3.0682    6.0297   -0.0024 C.ar    1  LIG1       -0.0113
     12 H           1.0947    6.8845   -0.0031 H       1  LIG1        0.0624
     13 C           3.1675    3.6193   -0.0001 C.ar    1  LIG1       -0.0503
     14 C           3.8221    4.8554   -0.0012 C.ar    1  LIG1       -0.0529
     15 H           3.7461    2.6990    0.0004 H       1  LIG1        0.0625
     16 H          -0.3008    4.7349   -0.0004 H       1  LIG1        0.0625
     17 H           5.1210    4.9087   -0.0015 H       1  LIG1        0.0624
     18 C           3.6609    7.1867   -0.0037 C.ar    1  LIG1        0.0193
     19 C           3.0315    8.4116   -0.0044 C.ar    1  LIG1       -0.0469
     20 C           3.9764    9.4879   -0.0051 C.ar    1  LIG1       -0.0541
     21 C           5.2725    9.0222   -0.0057 C.ar    1  LIG1       -0.0237
     22 S           5.3250    7.3509   -0.0047 S.2     1  LIG1       -0.0967
     23 H           6.3432    9.7596   -0.0069 H       1  LIG1        0.0693
     24 H           1.7447    8.5962   -0.0042 H       1  LIG1        0.0629
     25 H           3.6269   10.7400   -0.0051 H       1  LIG1        0.0623
@<TRIPOS>BOND
     1    23    21    1
     2    21    20   ar
     3    21    22   ar
     4    25    20    1
     5    20    19   ar
     6    22    18   ar
     7    19    24    1
     8    19    18   ar
     9    18    11    1
    10    12     9    1
    11    11     9   ar
    12    11    14   ar
    13     9     8   ar
    14    17    14    1
    15    14    13   ar
    16     8    16    1
    17     8    10   ar
    18    13    10   ar
    19    13    15    1
    20     6     4   ar
    21     6     3   ar
    22     1     7    1
    23     1     4   ar
    24     1     2   ar
    25    10     3    1
    26     5     3   ar
    27     5     2   ar
