@<TRIPOS>MOLECULE
mol_data/noopt/geoms/mol2/84-55-.out
 32 35 0 0 0
SMALL
GASTEIGER

@<TRIPOS>ATOM
      1 C          -0.0089   -0.0179   -0.0000 C.ar    1  LIG1        0.1605
      2 N           1.3522   -0.0179   -0.0000 N.ar    1  LIG1       -0.1339
      3 C           1.1968    2.3931   -0.0000 C.ar    1  LIG1        0.2033
      4 N          -0.8254    1.0712   -0.0000 N.ar    1  LIG1       -0.1339
      5 N           1.9401    1.1968   -0.0000 N.ar    1  LIG1       -0.1258
      6 N          -0.2061    2.2702   -0.0001 N.ar    1  LIG1       -0.1258
      7 H          -0.5904   -1.1806   -0.0000 H       1  LIG1        0.1085
      8 C           0.9992    4.7308   -0.0007 C.ar    1  LIG1       -0.0503
      9 C           1.6766    5.9655   -0.0023 C.ar    1  LIG1       -0.0529
     10 C           1.7783    3.5557   -0.0000 C.ar    1  LIG1        0.0227
     11 C           3.0682    6.0297   -0.0024 C.ar    1  LIG1       -0.0113
     12 H           1.0947    6.8845   -0.0031 H       1  LIG1        0.0624
     13 C           3.1675    3.6193   -0.0001 C.ar    1  LIG1       -0.0503
     14 C           3.8221    4.8554   -0.0012 C.ar    1  LIG1       -0.0529
     15 H           3.7461    2.6990    0.0004 H       1  LIG1        0.0625
     16 H          -0.3008    4.7349   -0.0004 H       1  LIG1        0.0625
     17 H           5.1210    4.9087   -0.0015 H       1  LIG1        0.0624
     18 C           3.6609    7.1867   -0.0037 C.ar    1  LIG1        0.0199
     19 C           5.0228    7.3915   -0.0049 C.ar    1  LIG1       -0.0463
     20 C           5.3443    8.7871   -0.0069 C.ar    1  LIG1       -0.0458
     21 C           4.2092    9.5670   -0.0064 C.ar    1  LIG1        0.0265
     22 S           2.8220    8.6332   -0.0042 S.2     1  LIG1       -0.0877
     23 H           5.9244    6.4549   -0.0045 H       1  LIG1        0.0629
     24 H           6.5647    9.2349   -0.0090 H       1  LIG1        0.0629
     25 C           4.1821   10.8667   -0.0072 C.ar    1  LIG1        0.0259
     26 C           3.0469   11.6465   -0.0076 C.ar    1  LIG1       -0.0464
     27 C           3.3682   13.0421   -0.0079 C.ar    1  LIG1       -0.0541
     28 C           4.7301   13.2471   -0.0084 C.ar    1  LIG1       -0.0237
     29 S           5.5692   11.8007   -0.0079 S.2     1  LIG1       -0.0961
     30 H           5.3228   14.4041   -0.0093 H       1  LIG1        0.0693
     31 H           1.8265   11.1985   -0.0076 H       1  LIG1        0.0629
     32 H           2.4665   13.9786   -0.0076 H       1  LIG1        0.0623
@<TRIPOS>BOND
     1    30    28    1
     2    24    20    1
     3    28    29   ar
     4    28    27   ar
     5    29    25   ar
     6    27    26   ar
     7    27    32    1
     8    26    31    1
     9    26    25   ar
    10    25    21    1
    11    20    21   ar
    12    20    19   ar
    13    21    22   ar
    14    19    23    1
    15    19    18   ar
    16    22    18   ar
    17    18    11    1
    18    12     9    1
    19    11     9   ar
    20    11    14   ar
    21     9     8   ar
    22    17    14    1
    23    14    13   ar
    24     8    16    1
    25     8    10   ar
    26    13    10   ar
    27    13    15    1
    28     6     4   ar
    29     6     3   ar
    30     1     7    1
    31     1     4   ar
    32     1     2   ar
    33    10     3    1
    34     5     3   ar
    35     5     2   ar
