@<TRIPOS>MOLECULE
mol_data/noopt/geoms/mol2/84-8-.out
 24 26 0 0 0
SMALL
GASTEIGER

@<TRIPOS>ATOM
      1 C          -0.0089   -0.0179   -0.0000 C.ar    1  LIG1        0.1605
      2 N           1.3522   -0.0179   -0.0000 N.ar    1  LIG1       -0.1339
      3 C           1.1968    2.3931   -0.0000 C.ar    1  LIG1        0.2033
      4 N          -0.8254    1.0712   -0.0000 N.ar    1  LIG1       -0.1339
      5 N           1.9401    1.1968   -0.0000 N.ar    1  LIG1       -0.1258
      6 N          -0.2061    2.2702   -0.0001 N.ar    1  LIG1       -0.1258
      7 H          -0.5904   -1.1806   -0.0000 H       1  LIG1        0.1085
      8 C           0.9992    4.7308   -0.0007 C.ar    1  LIG1       -0.0503
      9 C           1.6766    5.9655   -0.0023 C.ar    1  LIG1       -0.0503
     10 C           1.7783    3.5557   -0.0000 C.ar    1  LIG1        0.0227
     11 C           3.0682    6.0297   -0.0024 C.ar    1  LIG1        0.0227
     12 H           1.0947    6.8845   -0.0031 H       1  LIG1        0.0625
     13 C           3.1675    3.6193   -0.0001 C.ar    1  LIG1       -0.0503
     14 C           3.8221    4.8554   -0.0012 C.ar    1  LIG1       -0.0503
     15 H           3.7461    2.6990    0.0004 H       1  LIG1        0.0625
     16 H          -0.3008    4.7349   -0.0004 H       1  LIG1        0.0625
     17 H           5.1210    4.9087   -0.0015 H       1  LIG1        0.0625
     18 C           3.6609    7.1867   -0.0037 C.ar    1  LIG1        0.2033
     19 N           2.8551    8.2836   -0.0043 N.ar    1  LIG1       -0.1258
     20 C           4.8901    9.5858   -0.0064 C.ar    1  LIG1        0.1605
     21 N           5.0220    7.1735   -0.0043 N.ar    1  LIG1       -0.1258
     22 N           3.4860    9.4766   -0.0057 N.ar    1  LIG1       -0.1339
     23 N           5.6217    8.3824   -0.0056 N.ar    1  LIG1       -0.1339
     24 H           5.4829   10.7428   -0.0077 H       1  LIG1        0.1085
@<TRIPOS>BOND
     1    24    20    1
     2    20    22   ar
     3    20    23   ar
     4    22    19   ar
     5    23    21   ar
     6    21    18   ar
     7    19    18   ar
     8    18    11    1
     9    12     9    1
    10    11     9   ar
    11    11    14   ar
    12     9     8   ar
    13    17    14    1
    14    14    13   ar
    15     8    16    1
    16     8    10   ar
    17    13    10   ar
    18    13    15    1
    19     6     4   ar
    20     6     3   ar
    21     1     7    1
    22     1     4   ar
    23     1     2   ar
    24    10     3    1
    25     5     3   ar
    26     5     2   ar
