@<TRIPOS>MOLECULE
mol_data/noopt/geoms/mol2/84.out
 18 19 0 0 0
SMALL
GASTEIGER

@<TRIPOS>ATOM
      1 C          -0.0089   -0.0179   -0.0000 C.ar    1  LIG1        0.1605
      2 N           1.3522   -0.0179   -0.0000 N.ar    1  LIG1       -0.1339
      3 C           1.1968    2.3931   -0.0000 C.ar    1  LIG1        0.2033
      4 N          -0.8254    1.0712   -0.0000 N.ar    1  LIG1       -0.1339
      5 N           1.9401    1.1968   -0.0000 N.ar    1  LIG1       -0.1258
      6 N          -0.2061    2.2702   -0.0001 N.ar    1  LIG1       -0.1258
      7 H          -0.5904   -1.1806   -0.0000 H       1  LIG1        0.1085
      8 C           3.1858    3.6372    0.0008 C.ar    1  LIG1       -0.0509
      9 C           3.7673    4.9198    0.0023 C.ar    1  LIG1       -0.0611
     10 C           1.7783    3.5557    0.0000 C.ar    1  LIG1        0.0226
     11 C           2.9840    6.0718    0.0024 C.ar    1  LIG1       -0.0617
     12 H           4.8517    5.0055    0.0031 H       1  LIG1        0.0618
     13 C           0.9958    4.7054    0.0001 C.ar    1  LIG1       -0.0509
     14 C           1.5922    5.9707    0.0012 C.ar    1  LIG1       -0.0611
     15 H          -0.0876    4.6163   -0.0004 H       1  LIG1        0.0625
     16 H           3.5542    7.2401    0.0037 H       1  LIG1        0.0618
     17 H           3.9689    2.5995    0.0004 H       1  LIG1        0.0625
     18 H           0.8557    7.0419    0.0015 H       1  LIG1        0.0618
@<TRIPOS>BOND
     1    15    13    1
     2     6     4   ar
     3     6     3   ar
     4     1     7    1
     5     1     4   ar
     6     1     2   ar
     7    10     3    1
     8    10    13   ar
     9    10     8   ar
    10     5     3   ar
    11     5     2   ar
    12    13    14   ar
    13    17     8    1
    14     8     9   ar
    15    14    18    1
    16    14    11   ar
    17     9    11   ar
    18     9    12    1
    19    11    16    1
