@<TRIPOS>MOLECULE
mol_data/noopt/geoms/mol2/8412-.out
 25 27 0 0 0
SMALL
GASTEIGER

@<TRIPOS>ATOM
      1 C          -0.0089   -0.0179   -0.0000 C.ar    1  LIG1        0.1605
      2 N           1.3522   -0.0179   -0.0000 N.ar    1  LIG1       -0.1339
      3 C           1.1968    2.3931   -0.0000 C.ar    1  LIG1        0.2033
      4 N          -0.8254    1.0712   -0.0000 N.ar    1  LIG1       -0.1339
      5 N           1.9401    1.1968   -0.0000 N.ar    1  LIG1       -0.1258
      6 N          -0.2061    2.2702   -0.0001 N.ar    1  LIG1       -0.1258
      7 H          -0.5904   -1.1806   -0.0000 H       1  LIG1        0.1085
      8 C           3.1858    3.6372    0.0008 C.ar    1  LIG1       -0.0503
      9 C           3.7673    4.9198    0.0023 C.ar    1  LIG1       -0.0504
     10 C           1.7783    3.5557    0.0000 C.ar    1  LIG1        0.0227
     11 C           2.9840    6.0718    0.0024 C.ar    1  LIG1        0.0173
     12 H           4.8517    5.0055    0.0031 H       1  LIG1        0.0625
     13 C           0.9958    4.7054    0.0001 C.ar    1  LIG1       -0.0503
     14 C           1.5922    5.9707    0.0012 C.ar    1  LIG1       -0.0504
     15 H          -0.0876    4.6163   -0.0004 H       1  LIG1        0.0625
     16 H           3.9689    2.5995    0.0004 H       1  LIG1        0.0625
     17 H           0.8557    7.0419    0.0015 H       1  LIG1        0.0625
     18 C           3.5542    7.2401    0.0037 C.ar    1  LIG1        0.1348
     19 C           3.1161    8.5481    0.0047 C.ar    1  LIG1       -0.0159
     20 C           4.2999    9.3821    0.0060 C.ar    1  LIG1       -0.0233
     21 C           5.3834    8.5279    0.0057 C.ar    1  LIG1        0.0926
     22 O           4.9493    7.2018    0.0045 O.2     1  LIG1       -0.4629
     23 H           6.6755    8.6707    0.0064 H       1  LIG1        0.1029
     24 H           1.8885    8.9761    0.0045 H       1  LIG1        0.0655
     25 H           4.3109   10.6820    0.0071 H       1  LIG1        0.0649
@<TRIPOS>BOND
     1    15    13    1
     2     6     3   ar
     3     6     4   ar
     4     2     5   ar
     5     2     1   ar
     6     3     5   ar
     7     3    10    1
     8     4     1   ar
     9     7     1    1
    10    10    13   ar
    11    10     8   ar
    12    13    14   ar
    13    16     8    1
    14     8     9   ar
    15    14    17    1
    16    14    11   ar
    17     9    11   ar
    18     9    12    1
    19    11    18    1
    20    18    22   ar
    21    18    19   ar
    22    22    21   ar
    23    24    19    1
    24    19    20   ar
    25    21    20   ar
    26    21    23    1
    27    20    25    1
