@<TRIPOS>MOLECULE
mol_data/noopt/geoms/mol2/8413-8.out
 32 35 0 0 0
SMALL
GASTEIGER

@<TRIPOS>ATOM
      1 C          -0.0089   -0.0179   -0.0000 C.ar    1  LIG1        0.1605
      2 N           1.3522   -0.0179   -0.0000 N.ar    1  LIG1       -0.1339
      3 C           1.1968    2.3931   -0.0000 C.ar    1  LIG1        0.2033
      4 N          -0.8254    1.0712   -0.0000 N.ar    1  LIG1       -0.1339
      5 N           1.9401    1.1968   -0.0000 N.ar    1  LIG1       -0.1258
      6 N          -0.2061    2.2702   -0.0001 N.ar    1  LIG1       -0.1258
      7 H          -0.5904   -1.1806   -0.0000 H       1  LIG1        0.1085
      8 C           3.1858    3.6372    0.0008 C.ar    1  LIG1       -0.0503
      9 C           3.7673    4.9198    0.0023 C.ar    1  LIG1       -0.0520
     10 C           1.7783    3.5557    0.0000 C.ar    1  LIG1        0.0227
     11 C           2.9840    6.0718    0.0024 C.ar    1  LIG1       -0.0017
     12 H           4.8517    5.0055    0.0031 H       1  LIG1        0.0624
     13 C           0.9958    4.7054    0.0001 C.ar    1  LIG1       -0.0503
     14 C           1.5922    5.9707    0.0012 C.ar    1  LIG1       -0.0520
     15 H          -0.0876    4.6163   -0.0004 H       1  LIG1        0.0625
     16 H           3.9689    2.5995    0.0004 H       1  LIG1        0.0625
     17 H           0.8557    7.0419    0.0015 H       1  LIG1        0.0624
     18 C           3.5542    7.2401    0.0037 C.ar    1  LIG1        0.0470
     19 C           3.0114    8.4864    0.0051 C.ar    1  LIG1       -0.0357
     20 C           4.0936    9.4242    0.0050 C.ar    1  LIG1       -0.0326
     21 C           5.2501    8.7097    0.0054 C.ar    1  LIG1        0.0879
     22 N           4.9245    7.3721    0.0041 N.ar    1  LIG1       -0.3516
     23 H           5.5754    6.6209    0.0041 H       1  LIG1        0.1660
     24 H           1.7428    8.7706    0.0049 H       1  LIG1        0.0639
     25 H           3.9927   10.7203    0.0051 H       1  LIG1        0.0640
     26 C           6.4876    9.1079    0.0056 C.ar    1  LIG1        0.2193
     27 N           7.4401    8.1356    0.0057 N.ar    1  LIG1       -0.1243
     28 C           9.0537    9.9337    0.0061 C.ar    1  LIG1        0.1605
     29 N           6.6943   10.4533    0.0057 N.ar    1  LIG1       -0.1243
     30 N           8.7192    8.5656    0.0059 N.ar    1  LIG1       -0.1338
     31 N           7.9842   10.8499    0.0058 N.ar    1  LIG1       -0.1338
     32 H          10.2912   10.3319    0.0063 H       1  LIG1        0.1085
@<TRIPOS>BOND
     1    15    13    1
     2     6     3   ar
     3     6     4   ar
     4     2     5   ar
     5     2     1   ar
     6     3     5   ar
     7     3    10    1
     8     4     1   ar
     9     7     1    1
    10    10    13   ar
    11    10     8   ar
    12    13    14   ar
    13    16     8    1
    14     8     9   ar
    15    14    17    1
    16    14    11   ar
    17     9    11   ar
    18     9    12    1
    19    11    18    1
    20    18    22   ar
    21    18    19   ar
    22    22    23    1
    23    22    21   ar
    24    24    19    1
    25    20    19   ar
    26    20    25    1
    27    20    21   ar
    28    21    26    1
    29    26    27   ar
    30    26    29   ar
    31    27    30   ar
    32    29    31   ar
    33    31    28   ar
    34    30    28   ar
    35    28    32    1
