@<TRIPOS>MOLECULE
mol_data/noopt/geoms/mol2/844-.out
 28 30 0 0 0
SMALL
GASTEIGER

@<TRIPOS>ATOM
      1 C          -0.0089   -0.0179   -0.0000 C.ar    1  LIG1        0.1605
      2 N           1.3522   -0.0179   -0.0000 N.ar    1  LIG1       -0.1339
      3 C           1.1968    2.3931   -0.0000 C.ar    1  LIG1        0.2033
      4 N          -0.8254    1.0712   -0.0000 N.ar    1  LIG1       -0.1339
      5 N           1.9401    1.1968   -0.0000 N.ar    1  LIG1       -0.1258
      6 N          -0.2061    2.2702   -0.0001 N.ar    1  LIG1       -0.1258
      7 H          -0.5904   -1.1806   -0.0000 H       1  LIG1        0.1085
      8 C           3.1858    3.6372    0.0008 C.ar    1  LIG1       -0.0504
      9 C           3.7673    4.9198    0.0023 C.ar    1  LIG1       -0.0534
     10 C           1.7783    3.5557    0.0000 C.ar    1  LIG1        0.0227
     11 C           2.9840    6.0718    0.0024 C.ar    1  LIG1       -0.0178
     12 H           4.8517    5.0055    0.0031 H       1  LIG1        0.0624
     13 C           0.9958    4.7054    0.0001 C.ar    1  LIG1       -0.0504
     14 C           1.5922    5.9707    0.0012 C.ar    1  LIG1       -0.0534
     15 H          -0.0876    4.6163   -0.0004 H       1  LIG1        0.0625
     16 H           3.9689    2.5995    0.0004 H       1  LIG1        0.0625
     17 H           0.8557    7.0419    0.0015 H       1  LIG1        0.0624
     18 C           2.7637    8.4075    0.0037 C.ar    1  LIG1       -0.0540
     19 C           3.4291    9.6486    0.0036 C.ar    1  LIG1       -0.0612
     20 C           3.5542    7.2400    0.0037 C.ar    1  LIG1       -0.0179
     21 C           4.8200    9.7264    0.0041 C.ar    1  LIG1       -0.0617
     22 H           2.8384   10.5620    0.0033 H       1  LIG1        0.0618
     23 C           4.9428    7.3170    0.0042 C.ar    1  LIG1       -0.0540
     24 C           5.5853    8.5595    0.0045 C.ar    1  LIG1       -0.0612
     25 H           5.5302    6.4024    0.0042 H       1  LIG1        0.0624
     26 H           5.4015   10.8891    0.0041 H       1  LIG1        0.0618
     27 H           1.4637    8.3990    0.0034 H       1  LIG1        0.0624
     28 H           6.8836    8.6253    0.0049 H       1  LIG1        0.0618
@<TRIPOS>BOND
     1    15    13    1
     2     6     4   ar
     3     6     3   ar
     4     1     7    1
     5     1     4   ar
     6     1     2   ar
     7    10     3    1
     8    10    13   ar
     9    10     8   ar
    10     5     3   ar
    11     5     2   ar
    12    13    14   ar
    13    16     8    1
    14     8     9   ar
    15    14    17    1
    16    14    11   ar
    17     9    11   ar
    18     9    12    1
    19    11    20    1
    20    22    19    1
    21    27    18    1
    22    19    18   ar
    23    19    21   ar
    24    18    20   ar
    25    20    23   ar
    26    21    26    1
    27    21    24   ar
    28    25    23    1
    29    23    24   ar
    30    24    28    1
