@<TRIPOS>MOLECULE
mol_data/noopt/geoms/mol2/84412.out
 35 38 0 0 0
SMALL
GASTEIGER

@<TRIPOS>ATOM
      1 C          -0.0089   -0.0179   -0.0000 C.ar    1  LIG1        0.1605
      2 N           1.3522   -0.0179   -0.0000 N.ar    1  LIG1       -0.1339
      3 C           1.1968    2.3931   -0.0000 C.ar    1  LIG1        0.2033
      4 N          -0.8254    1.0712   -0.0000 N.ar    1  LIG1       -0.1339
      5 N           1.9401    1.1968   -0.0000 N.ar    1  LIG1       -0.1258
      6 N          -0.2061    2.2702   -0.0001 N.ar    1  LIG1       -0.1258
      7 H          -0.5904   -1.1806   -0.0000 H       1  LIG1        0.1085
      8 C           3.1858    3.6372    0.0008 C.ar    1  LIG1       -0.0504
      9 C           3.7673    4.9198    0.0023 C.ar    1  LIG1       -0.0534
     10 C           1.7783    3.5557    0.0000 C.ar    1  LIG1        0.0227
     11 C           2.9840    6.0718    0.0024 C.ar    1  LIG1       -0.0178
     12 H           4.8517    5.0055    0.0031 H       1  LIG1        0.0624
     13 C           0.9958    4.7054    0.0001 C.ar    1  LIG1       -0.0504
     14 C           1.5922    5.9707    0.0012 C.ar    1  LIG1       -0.0534
     15 H          -0.0876    4.6163   -0.0004 H       1  LIG1        0.0625
     16 H           3.9689    2.5995    0.0004 H       1  LIG1        0.0625
     17 H           0.8557    7.0419    0.0015 H       1  LIG1        0.0624
     18 C           4.9609    7.3351    0.0052 C.ar    1  LIG1       -0.0534
     19 C           5.5299    8.6233    0.0081 C.ar    1  LIG1       -0.0505
     20 C           3.5542    7.2400    0.0037 C.ar    1  LIG1       -0.0178
     21 C           4.7354    9.7676    0.0089 C.ar    1  LIG1        0.0173
     22 H           6.6134    8.7195    0.0095 H       1  LIG1        0.0625
     23 C           2.7606    8.3821    0.0045 C.ar    1  LIG1       -0.0534
     24 C           3.3447    9.6530    0.0070 C.ar    1  LIG1       -0.0505
     25 H           1.6781    8.2825    0.0034 H       1  LIG1        0.0624
     26 H           5.7539    6.3051    0.0043 H       1  LIG1        0.0624
     27 H           2.5978   10.7170    0.0079 H       1  LIG1        0.0625
     28 C           5.2943   10.9414    0.0115 C.ar    1  LIG1        0.1348
     29 C           6.5905   11.4134    0.0135 C.ar    1  LIG1       -0.0159
     30 C           6.5056   12.8590    0.0160 C.ar    1  LIG1       -0.0233
     31 C           5.1624   13.1745    0.0153 C.ar    1  LIG1        0.0926
     32 O           4.3954   12.0090    0.0125 O.2     1  LIG1       -0.4629
     33 H           4.4694   14.2744    0.0167 H       1  LIG1        0.1029
     34 H           7.6899   10.7196    0.0133 H       1  LIG1        0.0655
     35 H           7.5157   13.6773    0.0183 H       1  LIG1        0.0649
@<TRIPOS>BOND
     1    15    13    1
     2     6     4   ar
     3     6     3   ar
     4    10     3    1
     5    10    13   ar
     6    10     8   ar
     7     1     7    1
     8     1     4   ar
     9     1     2   ar
    10     5     3   ar
    11     5     2   ar
    12    13    14   ar
    13    16     8    1
    14     8     9   ar
    15    14    17    1
    16    14    11   ar
    17     9    11   ar
    18     9    12    1
    19    11    20    1
    20    25    23    1
    21    20    23   ar
    22    20    18   ar
    23    26    18    1
    24    23    24   ar
    25    18    19   ar
    26    24    27    1
    27    24    21   ar
    28    19    21   ar
    29    19    22    1
    30    21    28    1
    31    28    32   ar
    32    28    29   ar
    33    32    31   ar
    34    34    29    1
    35    29    30   ar
    36    31    30   ar
    37    31    33    1
    38    30    35    1
