@<TRIPOS>MOLECULE
mol_data/noopt/geoms/mol2/845-.out
 25 27 0 0 0
SMALL
GASTEIGER

@<TRIPOS>ATOM
      1 C          -0.0089   -0.0179   -0.0000 C.ar    1  LIG1        0.1605
      2 N           1.3522   -0.0179   -0.0000 N.ar    1  LIG1       -0.1339
      3 C           1.1968    2.3931   -0.0000 C.ar    1  LIG1        0.2033
      4 N          -0.8254    1.0712   -0.0000 N.ar    1  LIG1       -0.1339
      5 N           1.9401    1.1968   -0.0000 N.ar    1  LIG1       -0.1258
      6 N          -0.2061    2.2702   -0.0001 N.ar    1  LIG1       -0.1258
      7 H          -0.5904   -1.1806   -0.0000 H       1  LIG1        0.1085
      8 C           3.1858    3.6372    0.0008 C.ar    1  LIG1       -0.0503
      9 C           3.7673    4.9198    0.0023 C.ar    1  LIG1       -0.0529
     10 C           1.7783    3.5557    0.0000 C.ar    1  LIG1        0.0227
     11 C           2.9840    6.0718    0.0024 C.ar    1  LIG1       -0.0113
     12 H           4.8517    5.0055    0.0031 H       1  LIG1        0.0624
     13 C           0.9958    4.7054    0.0001 C.ar    1  LIG1       -0.0503
     14 C           1.5922    5.9707    0.0012 C.ar    1  LIG1       -0.0529
     15 H          -0.0876    4.6163   -0.0004 H       1  LIG1        0.0625
     16 H           3.9689    2.5995    0.0004 H       1  LIG1        0.0625
     17 H           0.8557    7.0419    0.0015 H       1  LIG1        0.0624
     18 C           3.5542    7.2401    0.0037 C.ar    1  LIG1        0.0193
     19 C           2.9011    8.4526    0.0046 C.ar    1  LIG1       -0.0469
     20 C           3.8250    9.5469    0.0067 C.ar    1  LIG1       -0.0541
     21 C           5.1299    9.1065    0.0065 C.ar    1  LIG1       -0.0237
     22 S           5.2148    7.4365    0.0045 S.2     1  LIG1       -0.0967
     23 H           6.1860    9.8645    0.0075 H       1  LIG1        0.0693
     24 H           1.6110    8.6122    0.0040 H       1  LIG1        0.0629
     25 H           3.4513   10.7920    0.0086 H       1  LIG1        0.0623
@<TRIPOS>BOND
     1    15    13    1
     2     6     3   ar
     3     6     4   ar
     4     2     5   ar
     5     2     1   ar
     6     3     5   ar
     7     3    10    1
     8     4     1   ar
     9     7     1    1
    10    10    13   ar
    11    10     8   ar
    12    13    14   ar
    13    16     8    1
    14     8     9   ar
    15    14    17    1
    16    14    11   ar
    17     9    11   ar
    18     9    12    1
    19    11    18    1
    20    18    22   ar
    21    18    19   ar
    22    24    19    1
    23    22    21   ar
    24    19    20   ar
    25    21    20   ar
    26    21    23    1
    27    20    25    1
