@<TRIPOS>MOLECULE
mol_data/noopt/geoms/mol2/8454-.out
 35 38 0 0 0
SMALL
GASTEIGER

@<TRIPOS>ATOM
      1 C          -0.0089   -0.0179   -0.0000 C.ar    1  LIG1        0.1605
      2 N           1.3522   -0.0179   -0.0000 N.ar    1  LIG1       -0.1339
      3 C           1.1968    2.3931   -0.0000 C.ar    1  LIG1        0.2033
      4 N          -0.8254    1.0712   -0.0000 N.ar    1  LIG1       -0.1339
      5 N           1.9401    1.1968   -0.0000 N.ar    1  LIG1       -0.1258
      6 N          -0.2061    2.2702   -0.0001 N.ar    1  LIG1       -0.1258
      7 H          -0.5904   -1.1806   -0.0000 H       1  LIG1        0.1085
      8 C           3.1858    3.6372    0.0008 C.ar    1  LIG1       -0.0503
      9 C           3.7673    4.9198    0.0023 C.ar    1  LIG1       -0.0529
     10 C           1.7783    3.5557    0.0000 C.ar    1  LIG1        0.0227
     11 C           2.9840    6.0718    0.0024 C.ar    1  LIG1       -0.0113
     12 H           4.8517    5.0055    0.0031 H       1  LIG1        0.0624
     13 C           0.9958    4.7054    0.0001 C.ar    1  LIG1       -0.0503
     14 C           1.5922    5.9707    0.0012 C.ar    1  LIG1       -0.0529
     15 H          -0.0876    4.6163   -0.0004 H       1  LIG1        0.0625
     16 H           3.9689    2.5995    0.0004 H       1  LIG1        0.0625
     17 H           0.8557    7.0419    0.0015 H       1  LIG1        0.0624
     18 C           3.5542    7.2401    0.0037 C.ar    1  LIG1        0.0199
     19 C           4.9119    7.4712    0.0041 C.ar    1  LIG1       -0.0463
     20 C           5.2062    8.8728    0.0049 C.ar    1  LIG1       -0.0463
     21 C           4.0562    9.6305    0.0058 C.ar    1  LIG1        0.0199
     22 S           2.6874    8.6701    0.0050 S.2     1  LIG1       -0.0883
     23 H           5.8314    6.5523    0.0037 H       1  LIG1        0.0629
     24 H           6.4177    9.3442    0.0047 H       1  LIG1        0.0629
     25 C           2.7542   11.5822    0.0072 C.ar    1  LIG1       -0.0535
     26 C           2.7512   12.9905    0.0072 C.ar    1  LIG1       -0.0612
     27 C           4.0039   10.9294    0.0072 C.ar    1  LIG1       -0.0113
     28 C           3.9388   13.7187    0.0078 C.ar    1  LIG1       -0.0617
     29 H           1.7979   13.5142    0.0070 H       1  LIG1        0.0618
     30 C           5.1898   11.6560    0.0078 C.ar    1  LIG1       -0.0535
     31 C           5.1660   13.0545    0.0082 C.ar    1  LIG1       -0.0612
     32 H           6.1408   11.1295    0.0077 H       1  LIG1        0.0624
     33 H           3.8991   15.0181    0.0079 H       1  LIG1        0.0618
     34 H           1.6139   10.9580    0.0069 H       1  LIG1        0.0624
     35 H           6.2777   13.7284    0.0086 H       1  LIG1        0.0618
@<TRIPOS>BOND
     1    15    13    1
     2     6     4   ar
     3     6     3   ar
     4    10     3    1
     5    10    13   ar
     6    10     8   ar
     7     1     7    1
     8     1     4   ar
     9     1     2   ar
    10     5     3   ar
    11     5     2   ar
    12    13    14   ar
    13    16     8    1
    14     8     9   ar
    15    14    17    1
    16    14    11   ar
    17     9    11   ar
    18     9    12    1
    19    11    18    1
    20    18    19   ar
    21    18    22   ar
    22    23    19    1
    23    19    20   ar
    24    24    20    1
    25    20    21   ar
    26    22    21   ar
    27    21    27    1
    28    34    25    1
    29    29    26    1
    30    27    25   ar
    31    27    30   ar
    32    25    26   ar
    33    26    28   ar
    34    32    30    1
    35    30    31   ar
    36    28    33    1
    37    28    31   ar
    38    31    35    1
