@<TRIPOS>MOLECULE
mol_data/noopt/geoms/mol2/848-5-.out
 31 34 0 0 0
SMALL
GASTEIGER

@<TRIPOS>ATOM
      1 C          -0.0089   -0.0179   -0.0000 C.ar    1  LIG1        0.1605
      2 N           1.3522   -0.0179   -0.0000 N.ar    1  LIG1       -0.1339
      3 C           1.1968    2.3931   -0.0000 C.ar    1  LIG1        0.2033
      4 N          -0.8254    1.0712   -0.0000 N.ar    1  LIG1       -0.1339
      5 N           1.9401    1.1968   -0.0000 N.ar    1  LIG1       -0.1258
      6 N          -0.2061    2.2702   -0.0001 N.ar    1  LIG1       -0.1258
      7 H          -0.5904   -1.1806   -0.0000 H       1  LIG1        0.1085
      8 C           3.1858    3.6372    0.0008 C.ar    1  LIG1       -0.0503
      9 C           3.7673    4.9198    0.0023 C.ar    1  LIG1       -0.0503
     10 C           1.7783    3.5557    0.0000 C.ar    1  LIG1        0.0227
     11 C           2.9840    6.0718    0.0024 C.ar    1  LIG1        0.0227
     12 H           4.8517    5.0055    0.0031 H       1  LIG1        0.0625
     13 C           0.9958    4.7054    0.0001 C.ar    1  LIG1       -0.0503
     14 C           1.5922    5.9707    0.0012 C.ar    1  LIG1       -0.0503
     15 H          -0.0876    4.6163   -0.0004 H       1  LIG1        0.0625
     16 H           3.9689    2.5995    0.0004 H       1  LIG1        0.0625
     17 H           0.8557    7.0419    0.0015 H       1  LIG1        0.0625
     18 C           3.5542    7.2401    0.0037 C.ar    1  LIG1        0.2034
     19 N           2.7272    8.3211    0.0043 N.ar    1  LIG1       -0.1252
     20 C           4.7366    9.6626    0.0064 C.ar    1  LIG1        0.2099
     21 N           4.9153    7.2533    0.0043 N.ar    1  LIG1       -0.1252
     22 N           3.3348    9.5261    0.0057 N.ar    1  LIG1       -0.1247
     23 N           5.4914    8.4736    0.0058 N.ar    1  LIG1       -0.1247
     24 C           5.3068   10.8308    0.0077 C.ar    1  LIG1        0.0598
     25 C           4.6538   12.0434    0.0086 C.ar    1  LIG1       -0.0438
     26 C           5.5776   13.1377    0.0107 C.ar    1  LIG1       -0.0540
     27 C           6.8825   12.6973    0.0105 C.ar    1  LIG1       -0.0236
     28 S           6.9674   11.0273    0.0085 S.2     1  LIG1       -0.0934
     29 H           7.9387   13.4553    0.0115 H       1  LIG1        0.0693
     30 H           3.3636   12.2030    0.0079 H       1  LIG1        0.0630
     31 H           5.2039   14.3828    0.0126 H       1  LIG1        0.0623
@<TRIPOS>BOND
     1    15    13    1
     2     6     3   ar
     3     6     4   ar
     4     2     5   ar
     5     2     1   ar
     6     3     5   ar
     7     3    10    1
     8     4     1   ar
     9     7     1    1
    10    10    13   ar
    11    10     8   ar
    12    13    14   ar
    13    16     8    1
    14     8     9   ar
    15    14    17    1
    16    14    11   ar
    17     9    11   ar
    18     9    12    1
    19    11    18    1
    20    18    19   ar
    21    18    21   ar
    22    19    22   ar
    23    21    23   ar
    24    22    20   ar
    25    23    20   ar
    26    20    24    1
    27    24    28   ar
    28    24    25   ar
    29    30    25    1
    30    28    27   ar
    31    25    26   ar
    32    27    26   ar
    33    27    29    1
    34    26    31    1
