@<TRIPOS>MOLECULE
mol_data/noopt/geoms/mol2/85-.out
 15 16 0 0 0
SMALL
GASTEIGER

@<TRIPOS>ATOM
      1 C          -0.0089   -0.0179   -0.0000 C.ar    1  LIG1        0.1605
      2 N           1.3522   -0.0179   -0.0000 N.ar    1  LIG1       -0.1339
      3 C           1.1968    2.3931   -0.0000 C.ar    1  LIG1        0.2098
      4 N          -0.8254    1.0712   -0.0000 N.ar    1  LIG1       -0.1339
      5 N           1.9401    1.1968   -0.0000 N.ar    1  LIG1       -0.1253
      6 N          -0.2061    2.2702   -0.0001 N.ar    1  LIG1       -0.1253
      7 H          -0.5904   -1.1806   -0.0000 H       1  LIG1        0.1085
      8 C           1.7783    3.5558   -0.0000 C.ar    1  LIG1        0.0598
      9 C           1.1370    4.7746    0.0001 C.ar    1  LIG1       -0.0438
     10 C           2.0715    5.8599    0.0008 C.ar    1  LIG1       -0.0540
     11 C           3.3720    5.4069    0.0004 C.ar    1  LIG1       -0.0236
     12 S           3.4407    3.7361   -0.0001 S.2     1  LIG1       -0.0934
     13 H           4.4355    6.1546    0.0003 H       1  LIG1        0.0693
     14 H          -0.1515    4.9467   -0.0001 H       1  LIG1        0.0630
     15 H           1.7098    7.1086    0.0018 H       1  LIG1        0.0623
@<TRIPOS>BOND
     1    14     9    1
     2     6     3   ar
     3     6     4   ar
     4    12     8   ar
     5    12    11   ar
     6     1     2   ar
     7     1     4   ar
     8     1     7    1
     9     2     5   ar
    10     3     5   ar
    11     3     8    1
    12     8     9   ar
    13     9    10   ar
    14    13    11    1
    15    11    10   ar
    16    10    15    1
