@<TRIPOS>MOLECULE
mol_data/noopt/geoms/mol2/85-13-.out
 23 25 0 0 0
SMALL
GASTEIGER

@<TRIPOS>ATOM
      1 C          -0.0089   -0.0179   -0.0000 C.ar    1  LIG1        0.1605
      2 N           1.3522   -0.0179   -0.0000 N.ar    1  LIG1       -0.1339
      3 C           1.1968    2.3931   -0.0000 C.ar    1  LIG1        0.2098
      4 N          -0.8254    1.0712   -0.0000 N.ar    1  LIG1       -0.1339
      5 N           1.9401    1.1968   -0.0000 N.ar    1  LIG1       -0.1253
      6 N          -0.2061    2.2702   -0.0001 N.ar    1  LIG1       -0.1253
      7 H          -0.5904   -1.1806   -0.0000 H       1  LIG1        0.1085
      8 C           1.7783    3.5558   -0.0000 C.ar    1  LIG1        0.0604
      9 C           1.1370    4.7746    0.0001 C.ar    1  LIG1       -0.0432
     10 C           2.0715    5.8599    0.0008 C.ar    1  LIG1       -0.0448
     11 C           3.3720    5.4069    0.0004 C.ar    1  LIG1        0.0361
     12 S           3.4407    3.7361   -0.0001 S.2     1  LIG1       -0.0836
     13 H          -0.1515    4.9467   -0.0001 H       1  LIG1        0.0630
     14 H           1.7098    7.1086    0.0018 H       1  LIG1        0.0630
     15 C           4.4355    6.1546    0.0003 C.ar    1  LIG1        0.0531
     16 C           4.5620    7.5081    0.0007 C.ar    1  LIG1       -0.0359
     17 C           5.9625    7.8067   -0.0008 C.ar    1  LIG1       -0.0438
     18 C           6.6302    6.6225   -0.0003 C.ar    1  LIG1        0.0022
     19 N           5.6991    5.6085   -0.0001 N.ar    1  LIG1       -0.3603
     20 H           5.9064    4.6363    0.0003 H       1  LIG1        0.1653
     21 H           7.9062    6.3736   -0.0011 H       1  LIG1        0.0807
     22 H           3.5884    8.3695    0.0008 H       1  LIG1        0.0639
     23 H           6.5001    8.9903   -0.0020 H       1  LIG1        0.0633
@<TRIPOS>BOND
     1    23    17    1
     2    21    18    1
     3    17    18   ar
     4    17    16   ar
     5    18    19   ar
     6    13     9    1
     7    19    15   ar
     8    19    20    1
     9     6     4   ar
    10     6     3   ar
    11    12     8   ar
    12    12    11   ar
    13     1     7    1
    14     1     4   ar
    15     1     2   ar
    16     8     3    1
    17     8     9   ar
    18     5     3   ar
    19     5     2   ar
    20     9    10   ar
    21    15    11    1
    22    15    16   ar
    23    11    10   ar
    24    16    22    1
    25    10    14    1
