@<TRIPOS>MOLECULE
mol_data/noopt/geoms/mol2/85-13.out
 23 25 0 0 0
SMALL
GASTEIGER

@<TRIPOS>ATOM
      1 C          -0.0089   -0.0179   -0.0000 C.ar    1  LIG1        0.1605
      2 N           1.3522   -0.0179   -0.0000 N.ar    1  LIG1       -0.1339
      3 C           1.1968    2.3931   -0.0000 C.ar    1  LIG1        0.2098
      4 N          -0.8254    1.0712   -0.0000 N.ar    1  LIG1       -0.1339
      5 N           1.9401    1.1968   -0.0000 N.ar    1  LIG1       -0.1253
      6 N          -0.2061    2.2702   -0.0001 N.ar    1  LIG1       -0.1253
      7 H          -0.5904   -1.1806   -0.0000 H       1  LIG1        0.1085
      8 C           1.7783    3.5558   -0.0000 C.ar    1  LIG1        0.0604
      9 C           1.1370    4.7746    0.0001 C.ar    1  LIG1       -0.0432
     10 C           2.0715    5.8599    0.0008 C.ar    1  LIG1       -0.0448
     11 C           3.3720    5.4069    0.0004 C.ar    1  LIG1        0.0361
     12 S           3.4407    3.7361   -0.0001 S.2     1  LIG1       -0.0836
     13 H          -0.1515    4.9467   -0.0001 H       1  LIG1        0.0630
     14 H           1.7098    7.1086    0.0018 H       1  LIG1        0.0630
     15 C           4.4355    6.1546    0.0003 C.ar    1  LIG1        0.0531
     16 C           5.7519    5.8156   -0.0002 C.ar    1  LIG1       -0.0359
     17 C           6.5069    7.0324    0.0010 C.ar    1  LIG1       -0.0438
     18 C           5.6186    8.0615    0.0004 C.ar    1  LIG1        0.0022
     19 N           4.3493    7.5285    0.0004 N.ar    1  LIG1       -0.3603
     20 H           3.5046    8.0525   -0.0001 H       1  LIG1        0.1653
     21 H           5.8162    9.3463    0.0008 H       1  LIG1        0.0807
     22 H           6.2331    4.6079   -0.0001 H       1  LIG1        0.0639
     23 H           7.8026    7.1376    0.0020 H       1  LIG1        0.0633
@<TRIPOS>BOND
     1    16    22    1
     2    16    15   ar
     3    16    17   ar
     4    13     9    1
     5    20    19    1
     6     6     4   ar
     7     6     3   ar
     8    12     8   ar
     9    12    11   ar
    10     1     7    1
    11     1     4   ar
    12     1     2   ar
    13     8     3    1
    14     8     9   ar
    15     5     3   ar
    16     5     2   ar
    17     9    10   ar
    18    15    19   ar
    19    15    11    1
    20    18    19   ar
    21    18    21    1
    22    18    17   ar
    23    11    10   ar
    24    10    14    1
    25    17    23    1
