@<TRIPOS>MOLECULE
mol_data/noopt/geoms/mol2/85-134-.out
 33 36 0 0 0
SMALL
GASTEIGER

@<TRIPOS>ATOM
      1 C          -0.0089   -0.0179   -0.0000 C.ar    1  LIG1        0.1605
      2 N           1.3522   -0.0179   -0.0000 N.ar    1  LIG1       -0.1339
      3 C           1.1968    2.3931   -0.0000 C.ar    1  LIG1        0.2098
      4 N          -0.8254    1.0712   -0.0000 N.ar    1  LIG1       -0.1339
      5 N           1.9401    1.1968   -0.0000 N.ar    1  LIG1       -0.1253
      6 N          -0.2061    2.2702   -0.0001 N.ar    1  LIG1       -0.1253
      7 H          -0.5904   -1.1806   -0.0000 H       1  LIG1        0.1085
      8 C           1.7783    3.5558   -0.0000 C.ar    1  LIG1        0.0604
      9 C           1.1370    4.7746    0.0001 C.ar    1  LIG1       -0.0432
     10 C           2.0715    5.8599    0.0008 C.ar    1  LIG1       -0.0448
     11 C           3.3720    5.4069    0.0004 C.ar    1  LIG1        0.0362
     12 S           3.4407    3.7361   -0.0001 S.2     1  LIG1       -0.0836
     13 H          -0.1515    4.9467   -0.0001 H       1  LIG1        0.0630
     14 H           1.7098    7.1086    0.0018 H       1  LIG1        0.0630
     15 C           4.4355    6.1546    0.0003 C.ar    1  LIG1        0.0536
     16 C           5.7519    5.8156   -0.0002 C.ar    1  LIG1       -0.0353
     17 C           6.5069    7.0324    0.0010 C.ar    1  LIG1       -0.0358
     18 C           5.6186    8.0615    0.0004 C.ar    1  LIG1        0.0469
     19 N           4.3493    7.5285    0.0004 N.ar    1  LIG1       -0.3537
     20 H           3.5046    8.0525   -0.0001 H       1  LIG1        0.1659
     21 H           6.2331    4.6079   -0.0001 H       1  LIG1        0.0639
     22 H           7.8026    7.1376    0.0020 H       1  LIG1        0.0639
     23 C           4.7147   10.2264    0.0003 C.ar    1  LIG1       -0.0526
     24 C           4.9816   11.6092   -0.0007 C.ar    1  LIG1       -0.0611
     25 C           5.8162    9.3463    0.0008 C.ar    1  LIG1       -0.0017
     26 C           6.2867   12.0964   -0.0006 C.ar    1  LIG1       -0.0617
     27 H           4.1463   12.3059   -0.0013 H       1  LIG1        0.0618
     28 C           7.1193    9.8321    0.0009 C.ar    1  LIG1       -0.0526
     29 C           7.3639   11.2093    0.0003 C.ar    1  LIG1       -0.0611
     30 H           7.9518    9.1332    0.0012 H       1  LIG1        0.0624
     31 H           6.4967   13.3793   -0.0015 H       1  LIG1        0.0618
     32 H           3.4759    9.8323    0.0004 H       1  LIG1        0.0624
     33 H           8.5841   11.6577    0.0002 H       1  LIG1        0.0618
@<TRIPOS>BOND
     1    31    26    1
     2    27    24    1
     3    24    26   ar
     4    24    23   ar
     5    26    29   ar
     6    16    21    1
     7    16    15   ar
     8    16    17   ar
     9    13     9    1
    10    20    19    1
    11     6     4   ar
    12     6     3   ar
    13    12     8   ar
    14    12    11   ar
    15     1     7    1
    16     1     4   ar
    17     1     2   ar
    18     8     3    1
    19     8     9   ar
    20     5     3   ar
    21     5     2   ar
    22     9    10   ar
    23    33    29    1
    24    29    28   ar
    25    15    19   ar
    26    15    11    1
    27    23    32    1
    28    23    25   ar
    29    18    19   ar
    30    18    25    1
    31    18    17   ar
    32    11    10   ar
    33    25    28   ar
    34    10    14    1
    35    28    30    1
    36    17    22    1
