@<TRIPOS>MOLECULE
mol_data/noopt/geoms/mol2/85-138.out
 29 32 0 0 0
SMALL
GASTEIGER

@<TRIPOS>ATOM
      1 C          -0.0089   -0.0179   -0.0000 C.ar    1  LIG1        0.1605
      2 N           1.3522   -0.0179   -0.0000 N.ar    1  LIG1       -0.1339
      3 C           1.1968    2.3931   -0.0000 C.ar    1  LIG1        0.2098
      4 N          -0.8254    1.0712   -0.0000 N.ar    1  LIG1       -0.1339
      5 N           1.9401    1.1968   -0.0000 N.ar    1  LIG1       -0.1253
      6 N          -0.2061    2.2702   -0.0001 N.ar    1  LIG1       -0.1253
      7 H          -0.5904   -1.1806   -0.0000 H       1  LIG1        0.1085
      8 C           1.7783    3.5558   -0.0000 C.ar    1  LIG1        0.0604
      9 C           1.1370    4.7746    0.0001 C.ar    1  LIG1       -0.0432
     10 C           2.0715    5.8599    0.0008 C.ar    1  LIG1       -0.0448
     11 C           3.3720    5.4069    0.0004 C.ar    1  LIG1        0.0362
     12 S           3.4407    3.7361   -0.0001 S.2     1  LIG1       -0.0836
     13 H          -0.1515    4.9467   -0.0001 H       1  LIG1        0.0630
     14 H           1.7098    7.1086    0.0018 H       1  LIG1        0.0630
     15 C           4.4355    6.1546    0.0003 C.ar    1  LIG1        0.0537
     16 C           5.7519    5.8156   -0.0002 C.ar    1  LIG1       -0.0352
     17 C           6.5069    7.0324    0.0010 C.ar    1  LIG1       -0.0326
     18 C           5.6186    8.0615    0.0004 C.ar    1  LIG1        0.0880
     19 N           4.3493    7.5285    0.0004 N.ar    1  LIG1       -0.3512
     20 H           3.5046    8.0525   -0.0001 H       1  LIG1        0.1660
     21 H           6.2331    4.6079   -0.0001 H       1  LIG1        0.0639
     22 H           7.8026    7.1376    0.0020 H       1  LIG1        0.0640
     23 C           5.8162    9.3464    0.0008 C.ar    1  LIG1        0.2193
     24 N           7.1119    9.7631    0.0010 N.ar    1  LIG1       -0.1243
     25 C           6.2258   12.0107    0.0017 C.ar    1  LIG1        0.1605
     26 N           4.7054   10.1332    0.0010 N.ar    1  LIG1       -0.1243
     27 N           7.2997   11.0994    0.0015 N.ar    1  LIG1       -0.1338
     28 N           4.9279   11.4642    0.0014 N.ar    1  LIG1       -0.1338
     29 H           6.4234   13.2956    0.0022 H       1  LIG1        0.1085
@<TRIPOS>BOND
     1    16    21    1
     2    16    15   ar
     3    16    17   ar
     4    13     9    1
     5    20    19    1
     6     6     3   ar
     7     6     4   ar
     8    12     8   ar
     9    12    11   ar
    10     2     5   ar
    11     2     1   ar
    12     3     5   ar
    13     3     8    1
    14     4     1   ar
    15     7     1    1
    16     8     9   ar
    17     9    10   ar
    18    15    19   ar
    19    15    11    1
    20    18    19   ar
    21    18    23    1
    22    18    17   ar
    23    11    10   ar
    24    23    24   ar
    25    23    26   ar
    26    10    14    1
    27    17    22    1
    28    24    27   ar
    29    26    28   ar
    30    28    25   ar
    31    27    25   ar
    32    25    29    1
