@<TRIPOS>MOLECULE
mol_data/noopt/geoms/mol2/85-4-.out
 25 27 0 0 0
SMALL
GASTEIGER

@<TRIPOS>ATOM
      1 C          -0.0089   -0.0179   -0.0000 C.ar    1  LIG1        0.1605
      2 N           1.3522   -0.0179   -0.0000 N.ar    1  LIG1       -0.1339
      3 C           1.1968    2.3931   -0.0000 C.ar    1  LIG1        0.2098
      4 N          -0.8254    1.0712   -0.0000 N.ar    1  LIG1       -0.1339
      5 N           1.9401    1.1968   -0.0000 N.ar    1  LIG1       -0.1253
      6 N          -0.2061    2.2702   -0.0001 N.ar    1  LIG1       -0.1253
      7 H          -0.5904   -1.1806   -0.0000 H       1  LIG1        0.1085
      8 C           1.7783    3.5558   -0.0000 C.ar    1  LIG1        0.0604
      9 C           1.1370    4.7746    0.0001 C.ar    1  LIG1       -0.0432
     10 C           2.0715    5.8599    0.0008 C.ar    1  LIG1       -0.0462
     11 C           3.3720    5.4069    0.0004 C.ar    1  LIG1        0.0200
     12 S           3.4407    3.7361   -0.0001 S.2     1  LIG1       -0.0850
     13 H          -0.1515    4.9467   -0.0001 H       1  LIG1        0.0630
     14 H           1.7098    7.1086    0.0018 H       1  LIG1        0.0629
     15 C           4.3070    7.5586   -0.0005 C.ar    1  LIG1       -0.0535
     16 C           5.4891    8.3241   -0.0022 C.ar    1  LIG1       -0.0612
     17 C           4.4354    6.1545    0.0003 C.ar    1  LIG1       -0.0113
     18 C           6.7445    7.7205   -0.0024 C.ar    1  LIG1       -0.0617
     19 H           5.4128    9.4091   -0.0031 H       1  LIG1        0.0618
     20 C           5.6885    5.5514    0.0001 C.ar    1  LIG1       -0.0535
     21 C           6.8512    6.3291   -0.0012 C.ar    1  LIG1       -0.0612
     22 H           5.7613    4.4668    0.0006 H       1  LIG1        0.0624
     23 H           7.8152    8.4578   -0.0039 H       1  LIG1        0.0618
     24 H           3.1645    8.1789   -0.0001 H       1  LIG1        0.0624
     25 H           8.0199    5.7598   -0.0015 H       1  LIG1        0.0618
@<TRIPOS>BOND
     1    23    18    1
     2    19    16    1
     3    18    16   ar
     4    18    21   ar
     5    16    15   ar
     6    25    21    1
     7    21    20   ar
     8    15    24    1
     9    15    17   ar
    10    13     9    1
    11     6     4   ar
    12     6     3   ar
    13    12     8   ar
    14    12    11   ar
    15     1     7    1
    16     1     4   ar
    17     1     2   ar
    18     8     3    1
    19     8     9   ar
    20     5     3   ar
    21     5     2   ar
    22    20    17   ar
    23    20    22    1
    24     9    10   ar
    25    17    11    1
    26    11    10   ar
    27    10    14    1
