@<TRIPOS>MOLECULE
mol_data/noopt/geoms/mol2/85-5-4.out
 32 35 0 0 0
SMALL
GASTEIGER

@<TRIPOS>ATOM
      1 C          -0.0089   -0.0179   -0.0000 C.ar    1  LIG1        0.1605
      2 N           1.3522   -0.0179   -0.0000 N.ar    1  LIG1       -0.1339
      3 C           1.1968    2.3931   -0.0000 C.ar    1  LIG1        0.2098
      4 N          -0.8254    1.0712   -0.0000 N.ar    1  LIG1       -0.1339
      5 N           1.9401    1.1968   -0.0000 N.ar    1  LIG1       -0.1253
      6 N          -0.2061    2.2702   -0.0001 N.ar    1  LIG1       -0.1253
      7 H          -0.5904   -1.1806   -0.0000 H       1  LIG1        0.1085
      8 C           1.7783    3.5558   -0.0000 C.ar    1  LIG1        0.0604
      9 C           1.1370    4.7746    0.0001 C.ar    1  LIG1       -0.0432
     10 C           2.0715    5.8599    0.0008 C.ar    1  LIG1       -0.0457
     11 C           3.3720    5.4069    0.0004 C.ar    1  LIG1        0.0266
     12 S           3.4407    3.7361   -0.0001 S.2     1  LIG1       -0.0845
     13 H          -0.1515    4.9467   -0.0001 H       1  LIG1        0.0630
     14 H           1.7098    7.1086    0.0018 H       1  LIG1        0.0629
     15 C           4.4355    6.1546    0.0003 C.ar    1  LIG1        0.0265
     16 C           4.4491    7.5317    0.0003 C.ar    1  LIG1       -0.0458
     17 C           5.7866    8.0438    0.0009 C.ar    1  LIG1       -0.0463
     18 C           6.7165    7.0281    0.0005 C.ar    1  LIG1        0.0199
     19 S           5.9845    5.5247    0.0001 S.2     1  LIG1       -0.0877
     20 H           3.3964    8.2945    0.0001 H       1  LIG1        0.0629
     21 H           6.0606    9.3146    0.0017 H       1  LIG1        0.0629
     22 C           8.8494    6.0509    0.0008 C.ar    1  LIG1       -0.0535
     23 C          10.2405    6.2706    0.0020 C.ar    1  LIG1       -0.0612
     24 C           8.0074    7.1818    0.0002 C.ar    1  LIG1       -0.0113
     25 C          10.7719    7.5583    0.0020 C.ar    1  LIG1       -0.0617
     26 H          10.9084    5.4120    0.0027 H       1  LIG1        0.0618
     27 C           8.5373    8.4675    0.0002 C.ar    1  LIG1       -0.0535
     28 C           9.9221    8.6651    0.0010 C.ar    1  LIG1       -0.0612
     29 H           7.8672    9.3234   -0.0002 H       1  LIG1        0.0624
     30 H          12.0612    7.7245    0.0031 H       1  LIG1        0.0618
     31 H           8.4133    4.8263    0.0006 H       1  LIG1        0.0624
     32 H          10.4117    9.8694    0.0012 H       1  LIG1        0.0618
@<TRIPOS>BOND
     1    29    27    1
     2    13     9    1
     3     6     3   ar
     4     6     4   ar
     5    12     8   ar
     6    12    11   ar
     7     2     5   ar
     8     2     1   ar
     9     3     5   ar
    10     3     8    1
    11     4     1   ar
    12     7     1    1
    13     8     9   ar
    14    20    16    1
    15    19    15   ar
    16    19    18   ar
    17     9    10   ar
    18    27    24   ar
    19    27    28   ar
    20    24    18    1
    21    24    22   ar
    22    15    16   ar
    23    15    11    1
    24    16    17   ar
    25    11    10   ar
    26    18    17   ar
    27    31    22    1
    28    22    23   ar
    29    10    14    1
    30    17    21    1
    31    28    32    1
    32    28    25   ar
    33    25    23   ar
    34    25    30    1
    35    23    26    1
