@<TRIPOS>MOLECULE
mol_data/noopt/geoms/mol2/85-5.out
 22 24 0 0 0
SMALL
GASTEIGER

@<TRIPOS>ATOM
      1 C          -0.0089   -0.0179   -0.0000 C.ar    1  LIG1        0.1605
      2 N           1.3522   -0.0179   -0.0000 N.ar    1  LIG1       -0.1339
      3 C           1.1968    2.3931   -0.0000 C.ar    1  LIG1        0.2098
      4 N          -0.8254    1.0712   -0.0000 N.ar    1  LIG1       -0.1339
      5 N           1.9401    1.1968   -0.0000 N.ar    1  LIG1       -0.1253
      6 N          -0.2061    2.2702   -0.0001 N.ar    1  LIG1       -0.1253
      7 H          -0.5904   -1.1806   -0.0000 H       1  LIG1        0.1085
      8 C           1.7783    3.5558   -0.0000 C.ar    1  LIG1        0.0604
      9 C           1.1370    4.7746    0.0001 C.ar    1  LIG1       -0.0432
     10 C           2.0715    5.8599    0.0008 C.ar    1  LIG1       -0.0457
     11 C           3.3720    5.4069    0.0004 C.ar    1  LIG1        0.0266
     12 S           3.4407    3.7361   -0.0001 S.2     1  LIG1       -0.0845
     13 H          -0.1515    4.9467   -0.0001 H       1  LIG1        0.0630
     14 H           1.7098    7.1086    0.0018 H       1  LIG1        0.0629
     15 C           4.4355    6.1546    0.0003 C.ar    1  LIG1        0.0259
     16 C           5.7360    5.7014   -0.0002 C.ar    1  LIG1       -0.0464
     17 C           6.6705    6.7866   -0.0010 C.ar    1  LIG1       -0.0541
     18 C           6.0294    8.0054   -0.0003 C.ar    1  LIG1       -0.0237
     19 S           4.3670    7.8254    0.0006 S.2     1  LIG1       -0.0961
     20 H           6.6109    9.1681   -0.0001 H       1  LIG1        0.0693
     21 H           6.0975    4.4526   -0.0001 H       1  LIG1        0.0629
     22 H           7.9591    6.6143   -0.0022 H       1  LIG1        0.0623
@<TRIPOS>BOND
     1    22    17    1
     2    17    18   ar
     3    17    16   ar
     4    18    20    1
     5    18    19   ar
     6    16    21    1
     7    16    15   ar
     8    13     9    1
     9     6     4   ar
    10     6     3   ar
    11    12     8   ar
    12    12    11   ar
    13     1     7    1
    14     1     4   ar
    15     1     2   ar
    16     8     3    1
    17     8     9   ar
    18     5     3   ar
    19     5     2   ar
    20     9    10   ar
    21    15    11    1
    22    15    19   ar
    23    11    10   ar
    24    10    14    1
