@<TRIPOS>MOLECULE
mol_data/noopt/geoms/mol2/85.out
 15 16 0 0 0
SMALL
GASTEIGER

@<TRIPOS>ATOM
      1 C          -0.0089   -0.0179   -0.0000 C.ar    1  LIG1        0.1605
      2 N           1.3522   -0.0179   -0.0000 N.ar    1  LIG1       -0.1339
      3 C           1.1968    2.3931   -0.0000 C.ar    1  LIG1        0.2098
      4 N          -0.8254    1.0712   -0.0000 N.ar    1  LIG1       -0.1339
      5 N           1.9401    1.1968   -0.0000 N.ar    1  LIG1       -0.1253
      6 N          -0.2061    2.2702   -0.0001 N.ar    1  LIG1       -0.1253
      7 H          -0.5904   -1.1806   -0.0000 H       1  LIG1        0.1085
      8 C           1.7783    3.5558    0.0000 C.ar    1  LIG1        0.0598
      9 C           3.1381    3.7738   -0.0004 C.ar    1  LIG1       -0.0438
     10 C           3.4460    5.1724   -0.0010 C.ar    1  LIG1       -0.0540
     11 C           2.3034    5.9413   -0.0003 C.ar    1  LIG1       -0.0236
     12 S           0.9254    4.9941    0.0004 S.2     1  LIG1       -0.0934
     13 H           2.2638    7.2407   -0.0000 H       1  LIG1        0.0693
     14 H           4.0488    2.8460   -0.0004 H       1  LIG1        0.0630
     15 H           4.6621    5.6321   -0.0022 H       1  LIG1        0.0623
@<TRIPOS>BOND
     1    15    10    1
     2    10     9   ar
     3    10    11   ar
     4    14     9    1
     5     9     8   ar
     6    11    13    1
     7    11    12   ar
     8     6     3   ar
     9     6     4   ar
    10     1     2   ar
    11     1     4   ar
    12     1     7    1
    13     2     5   ar
    14     3     5   ar
    15     3     8    1
    16     8    12   ar
