@<TRIPOS>MOLECULE
mol_data/noopt/geoms/mol2/8512.out
 22 24 0 0 0
SMALL
GASTEIGER

@<TRIPOS>ATOM
      1 C          -0.0089   -0.0179   -0.0000 C.ar    1  LIG1        0.1605
      2 N           1.3522   -0.0179   -0.0000 N.ar    1  LIG1       -0.1339
      3 C           1.1968    2.3931   -0.0000 C.ar    1  LIG1        0.2099
      4 N          -0.8254    1.0712   -0.0000 N.ar    1  LIG1       -0.1339
      5 N           1.9401    1.1968   -0.0000 N.ar    1  LIG1       -0.1253
      6 N          -0.2061    2.2702   -0.0001 N.ar    1  LIG1       -0.1253
      7 H          -0.5904   -1.1806   -0.0000 H       1  LIG1        0.1085
      8 C           1.7783    3.5558    0.0000 C.ar    1  LIG1        0.0605
      9 C           3.1381    3.7738   -0.0004 C.ar    1  LIG1       -0.0431
     10 C           3.4460    5.1724   -0.0010 C.ar    1  LIG1       -0.0433
     11 C           2.3034    5.9413   -0.0003 C.ar    1  LIG1        0.0551
     12 S           0.9254    4.9941    0.0004 S.2     1  LIG1       -0.0820
     13 H           4.0488    2.8460   -0.0004 H       1  LIG1        0.0630
     14 H           4.6621    5.6321   -0.0022 H       1  LIG1        0.0630
     15 C           2.2638    7.2407   -0.0000 C.ar    1  LIG1        0.1413
     16 C           3.2008    8.2531    0.0002 C.ar    1  LIG1       -0.0154
     17 C           2.4643    9.4999    0.0004 C.ar    1  LIG1       -0.0233
     18 C           1.1255    9.1665    0.0003 C.ar    1  LIG1        0.0926
     19 O           0.9763    7.7792   -0.0001 O.2     1  LIG1       -0.4624
     20 H           0.0062    9.8277    0.0004 H       1  LIG1        0.1029
     21 H           4.4957    8.1388    0.0003 H       1  LIG1        0.0655
     22 H           2.9885   10.6895    0.0007 H       1  LIG1        0.0649
@<TRIPOS>BOND
     1    14    10    1
     2    10     9   ar
     3    10    11   ar
     4    13     9    1
     5     9     8   ar
     6    11    15    1
     7    11    12   ar
     8    19    15   ar
     9    19    18   ar
    10     6     4   ar
    11     6     3   ar
    12    15    16   ar
    13     7     1    1
    14     8     3    1
    15     8    12   ar
    16     5     3   ar
    17     5     2   ar
    18     4     1   ar
    19     1     2   ar
    20    16    21    1
    21    16    17   ar
    22    18    20    1
    23    18    17   ar
    24    17    22    1
