@<TRIPOS>MOLECULE
mol_data/noopt/geoms/mol2/85124.out
 32 35 0 0 0
SMALL
GASTEIGER

@<TRIPOS>ATOM
      1 C          -0.0089   -0.0179   -0.0000 C.ar    1  LIG1        0.1605
      2 N           1.3522   -0.0179   -0.0000 N.ar    1  LIG1       -0.1339
      3 C           1.1968    2.3931   -0.0000 C.ar    1  LIG1        0.2099
      4 N          -0.8254    1.0712   -0.0000 N.ar    1  LIG1       -0.1339
      5 N           1.9401    1.1968   -0.0000 N.ar    1  LIG1       -0.1253
      6 N          -0.2061    2.2702   -0.0001 N.ar    1  LIG1       -0.1253
      7 H          -0.5904   -1.1806   -0.0000 H       1  LIG1        0.1085
      8 C           1.7783    3.5558    0.0000 C.ar    1  LIG1        0.0605
      9 C           3.1381    3.7738   -0.0004 C.ar    1  LIG1       -0.0431
     10 C           3.4460    5.1724   -0.0010 C.ar    1  LIG1       -0.0433
     11 C           2.3034    5.9413   -0.0003 C.ar    1  LIG1        0.0551
     12 S           0.9254    4.9941    0.0004 S.2     1  LIG1       -0.0820
     13 H           4.0488    2.8460   -0.0004 H       1  LIG1        0.0630
     14 H           4.6621    5.6321   -0.0022 H       1  LIG1        0.0630
     15 C           2.2638    7.2407   -0.0000 C.ar    1  LIG1        0.1422
     16 C           3.2008    8.2531    0.0002 C.ar    1  LIG1       -0.0147
     17 C           2.4643    9.4999    0.0004 C.ar    1  LIG1       -0.0152
     18 C           1.1255    9.1665    0.0003 C.ar    1  LIG1        0.1357
     19 O           0.9763    7.7792   -0.0001 O.2     1  LIG1       -0.4543
     20 H           4.4957    8.1388    0.0003 H       1  LIG1        0.0656
     21 H           2.9885   10.6895    0.0007 H       1  LIG1        0.0656
     22 C           0.0233   11.2375    0.0013 C.ar    1  LIG1       -0.0511
     23 C          -1.2156   11.9072    0.0029 C.ar    1  LIG1       -0.0611
     24 C           0.0063    9.8277    0.0004 C.ar    1  LIG1        0.0173
     25 C          -2.4194   11.2062    0.0032 C.ar    1  LIG1       -0.0617
     26 H          -1.2253   12.9949    0.0038 H       1  LIG1        0.0618
     27 C          -1.1953    9.1274    0.0006 C.ar    1  LIG1       -0.0511
     28 C          -2.4157    9.8108    0.0019 C.ar    1  LIG1       -0.0611
     29 H          -1.1821    8.0405    0.0001 H       1  LIG1        0.0625
     30 H          -3.5450   11.8566    0.0046 H       1  LIG1        0.0618
     31 H           1.1132   11.9462    0.0009 H       1  LIG1        0.0625
     32 H          -3.5358    9.1509    0.0022 H       1  LIG1        0.0618
@<TRIPOS>BOND
     1    14    10    1
     2    10     9   ar
     3    10    11   ar
     4    13     9    1
     5     9     8   ar
     6    11    15    1
     7    11    12   ar
     8    19    15   ar
     9    19    18   ar
    10     6     3   ar
    11     6     4   ar
    12    15    16   ar
    13     2     5   ar
    14     2     1   ar
    15     3     5   ar
    16     3     8    1
    17     4     1   ar
    18     7     1    1
    19     8    12   ar
    20    29    27    1
    21    16    20    1
    22    16    17   ar
    23    18    24    1
    24    18    17   ar
    25    24    27   ar
    26    24    22   ar
    27    17    21    1
    28    27    28   ar
    29    31    22    1
    30    22    23   ar
    31    28    32    1
    32    28    25   ar
    33    23    25   ar
    34    23    26    1
    35    25    30    1
