@<TRIPOS>MOLECULE
mol_data/noopt/geoms/mol2/85125.out
 29 32 0 0 0
SMALL
GASTEIGER

@<TRIPOS>ATOM
      1 C          -0.0089   -0.0179   -0.0000 C.ar    1  LIG1        0.1605
      2 N           1.3522   -0.0179   -0.0000 N.ar    1  LIG1       -0.1339
      3 C           1.1968    2.3931   -0.0000 C.ar    1  LIG1        0.2099
      4 N          -0.8254    1.0712   -0.0000 N.ar    1  LIG1       -0.1339
      5 N           1.9401    1.1968   -0.0000 N.ar    1  LIG1       -0.1253
      6 N          -0.2061    2.2702   -0.0001 N.ar    1  LIG1       -0.1253
      7 H          -0.5904   -1.1806   -0.0000 H       1  LIG1        0.1085
      8 C           1.7783    3.5558    0.0000 C.ar    1  LIG1        0.0605
      9 C           3.1381    3.7738   -0.0004 C.ar    1  LIG1       -0.0431
     10 C           3.4460    5.1724   -0.0010 C.ar    1  LIG1       -0.0433
     11 C           2.3034    5.9413   -0.0003 C.ar    1  LIG1        0.0551
     12 S           0.9254    4.9941    0.0004 S.2     1  LIG1       -0.0820
     13 H           4.0488    2.8460   -0.0004 H       1  LIG1        0.0630
     14 H           4.6621    5.6321   -0.0022 H       1  LIG1        0.0630
     15 C           2.2638    7.2407   -0.0000 C.ar    1  LIG1        0.1423
     16 C           3.2008    8.2531    0.0002 C.ar    1  LIG1       -0.0147
     17 C           2.4643    9.4999    0.0004 C.ar    1  LIG1       -0.0147
     18 C           1.1255    9.1665    0.0003 C.ar    1  LIG1        0.1422
     19 O           0.9763    7.7792   -0.0001 O.2     1  LIG1       -0.4538
     20 H           4.4957    8.1388    0.0003 H       1  LIG1        0.0656
     21 H           2.9885   10.6895    0.0007 H       1  LIG1        0.0656
     22 C           0.0062    9.8277    0.0004 C.ar    1  LIG1        0.0544
     23 C          -0.1163   11.1995    0.0002 C.ar    1  LIG1       -0.0440
     24 C          -1.4900   11.6043   -0.0003 C.ar    1  LIG1       -0.0540
     25 C          -2.3368   10.5182    0.0004 C.ar    1  LIG1       -0.0236
     26 S          -1.4882    9.0774    0.0009 S.2     1  LIG1       -0.0936
     27 H          -3.6358   10.5694    0.0008 H       1  LIG1        0.0693
     28 H           0.8728   12.0431    0.0001 H       1  LIG1        0.0630
     29 H          -1.8636   12.8495   -0.0014 H       1  LIG1        0.0623
@<TRIPOS>BOND
     1    14    10    1
     2    29    24    1
     3    10     9   ar
     4    10    11   ar
     5    13     9    1
     6     9     8   ar
     7    24    23   ar
     8    24    25   ar
     9    11    15    1
    10    11    12   ar
    11    19    15   ar
    12    19    18   ar
    13     6     3   ar
    14     6     4   ar
    15    15    16   ar
    16     8     3    1
    17     8    12   ar
    18     2     1   ar
    19     2     5   ar
    20     3     5   ar
    21     4     1   ar
    22     1     7    1
    23    28    23    1
    24    23    22   ar
    25    16    20    1
    26    16    17   ar
    27    18    22    1
    28    18    17   ar
    29    25    27    1
    30    25    26   ar
    31    22    26   ar
    32    17    21    1
