@<TRIPOS>MOLECULE
mol_data/noopt/geoms/mol2/8513.out
 23 25 0 0 0
SMALL
GASTEIGER

@<TRIPOS>ATOM
      1 C          -0.0089   -0.0179   -0.0000 C.ar    1  LIG1        0.1605
      2 N           1.3522   -0.0179   -0.0000 N.ar    1  LIG1       -0.1339
      3 C           1.1968    2.3931   -0.0000 C.ar    1  LIG1        0.2098
      4 N          -0.8254    1.0712   -0.0000 N.ar    1  LIG1       -0.1339
      5 N           1.9401    1.1968   -0.0000 N.ar    1  LIG1       -0.1253
      6 N          -0.2061    2.2702   -0.0001 N.ar    1  LIG1       -0.1253
      7 H          -0.5904   -1.1806   -0.0000 H       1  LIG1        0.1085
      8 C           1.7783    3.5558    0.0000 C.ar    1  LIG1        0.0604
      9 C           3.1381    3.7738   -0.0004 C.ar    1  LIG1       -0.0432
     10 C           3.4460    5.1724   -0.0010 C.ar    1  LIG1       -0.0448
     11 C           2.3034    5.9413   -0.0003 C.ar    1  LIG1        0.0361
     12 S           0.9254    4.9941    0.0004 S.2     1  LIG1       -0.0836
     13 H           4.0488    2.8460   -0.0004 H       1  LIG1        0.0630
     14 H           4.6621    5.6321   -0.0022 H       1  LIG1        0.0630
     15 C           2.2638    7.2407   -0.0000 C.ar    1  LIG1        0.0531
     16 C           3.2708    8.1538   -0.0002 C.ar    1  LIG1       -0.0359
     17 C           2.6697    9.4535    0.0014 C.ar    1  LIG1       -0.0438
     18 C           1.3217    9.2775    0.0007 C.ar    1  LIG1        0.0022
     19 N           1.0688    7.9242    0.0003 N.ar    1  LIG1       -0.3603
     20 H           0.1667    7.5070   -0.0003 H       1  LIG1        0.1653
     21 H           0.3572   10.1491    0.0014 H       1  LIG1        0.0807
     22 H           4.5441    7.8915   -0.0002 H       1  LIG1        0.0639
     23 H           3.2943   10.5936    0.0027 H       1  LIG1        0.0633
@<TRIPOS>BOND
     1    14    10    1
     2    10     9   ar
     3    10    11   ar
     4    13     9    1
     5     9     8   ar
     6    20    19    1
     7    11    15    1
     8    11    12   ar
     9    16    22    1
    10    16    15   ar
    11    16    17   ar
    12     6     4   ar
    13     6     3   ar
    14    15    19   ar
    15     7     1    1
    16     8     3    1
    17     8    12   ar
    18     5     3   ar
    19     5     2   ar
    20     4     1   ar
    21     1     2   ar
    22    19    18   ar
    23    18    17   ar
    24    18    21    1
    25    17    23    1
