@<TRIPOS>MOLECULE
mol_data/noopt/geoms/mol2/8513-.out
 23 25 0 0 0
SMALL
GASTEIGER

@<TRIPOS>ATOM
      1 C          -0.0089   -0.0179   -0.0000 C.ar    1  LIG1        0.1605
      2 N           1.3522   -0.0179   -0.0000 N.ar    1  LIG1       -0.1339
      3 C           1.1968    2.3931   -0.0000 C.ar    1  LIG1        0.2098
      4 N          -0.8254    1.0712   -0.0000 N.ar    1  LIG1       -0.1339
      5 N           1.9401    1.1968   -0.0000 N.ar    1  LIG1       -0.1253
      6 N          -0.2061    2.2702   -0.0001 N.ar    1  LIG1       -0.1253
      7 H          -0.5904   -1.1806   -0.0000 H       1  LIG1        0.1085
      8 C           1.7783    3.5558    0.0000 C.ar    1  LIG1        0.0604
      9 C           3.1381    3.7738   -0.0004 C.ar    1  LIG1       -0.0432
     10 C           3.4460    5.1724   -0.0010 C.ar    1  LIG1       -0.0448
     11 C           2.3034    5.9413   -0.0003 C.ar    1  LIG1        0.0361
     12 S           0.9254    4.9941    0.0004 S.2     1  LIG1       -0.0836
     13 H           4.0488    2.8460   -0.0004 H       1  LIG1        0.0630
     14 H           4.6621    5.6321   -0.0022 H       1  LIG1        0.0630
     15 C           2.2638    7.2407   -0.0000 C.ar    1  LIG1        0.0531
     16 C           1.2029    8.0907    0.0007 C.ar    1  LIG1       -0.0359
     17 C           1.7236    9.4246   -0.0004 C.ar    1  LIG1       -0.0438
     18 C           3.0798    9.3312   -0.0000 C.ar    1  LIG1        0.0022
     19 N           3.4148    7.9959   -0.0002 N.ar    1  LIG1       -0.3603
     20 H           4.3407    7.6344    0.0001 H       1  LIG1        0.1653
     21 H           3.9894   10.2600   -0.0005 H       1  LIG1        0.0807
     22 H          -0.0520    7.7512    0.0007 H       1  LIG1        0.0639
     23 H           1.0306   10.5245   -0.0013 H       1  LIG1        0.0633
@<TRIPOS>BOND
     1    14    10    1
     2    23    17    1
     3    10     9   ar
     4    10    11   ar
     5    21    18    1
     6    17    18   ar
     7    17    16   ar
     8    13     9    1
     9     9     8   ar
    10    11    15    1
    11    11    12   ar
    12    19    15   ar
    13    19    18   ar
    14    19    20    1
    15     6     4   ar
    16     6     3   ar
    17    15    16   ar
    18     1     7    1
    19     1     4   ar
    20     1     2   ar
    21     8     3    1
    22     8    12   ar
    23     5     3   ar
    24     5     2   ar
    25    16    22    1
