@<TRIPOS>MOLECULE
mol_data/noopt/geoms/mol2/854-.out
 25 27 0 0 0
SMALL
GASTEIGER

@<TRIPOS>ATOM
      1 C          -0.0089   -0.0179   -0.0000 C.ar    1  LIG1        0.1605
      2 N           1.3522   -0.0179   -0.0000 N.ar    1  LIG1       -0.1339
      3 C           1.1968    2.3931   -0.0000 C.ar    1  LIG1        0.2098
      4 N          -0.8254    1.0712   -0.0000 N.ar    1  LIG1       -0.1339
      5 N           1.9401    1.1968   -0.0000 N.ar    1  LIG1       -0.1253
      6 N          -0.2061    2.2702   -0.0001 N.ar    1  LIG1       -0.1253
      7 H          -0.5904   -1.1806   -0.0000 H       1  LIG1        0.1085
      8 C           1.7783    3.5558    0.0000 C.ar    1  LIG1        0.0604
      9 C           3.1381    3.7738   -0.0004 C.ar    1  LIG1       -0.0432
     10 C           3.4460    5.1724   -0.0010 C.ar    1  LIG1       -0.0462
     11 C           2.3034    5.9413   -0.0003 C.ar    1  LIG1        0.0200
     12 S           0.9254    4.9941    0.0004 S.2     1  LIG1       -0.0850
     13 H           4.0488    2.8460   -0.0004 H       1  LIG1        0.0630
     14 H           4.6621    5.6321   -0.0022 H       1  LIG1        0.0629
     15 C           1.0205    7.9055   -0.0006 C.ar    1  LIG1       -0.0535
     16 C           1.0311    9.3137   -0.0018 C.ar    1  LIG1       -0.0612
     17 C           2.2638    7.2406   -0.0000 C.ar    1  LIG1       -0.0113
     18 C           2.2257   10.0304   -0.0018 C.ar    1  LIG1       -0.0617
     19 H           0.0829    9.8467   -0.0025 H       1  LIG1        0.0618
     20 C           3.4566    7.9556   -0.0000 C.ar    1  LIG1       -0.0535
     21 C           3.4464    9.3543   -0.0008 C.ar    1  LIG1       -0.0612
     22 H           4.4025    7.4199    0.0004 H       1  LIG1        0.0624
     23 H           2.1986   11.3301   -0.0029 H       1  LIG1        0.0618
     24 H          -0.1259    7.2924   -0.0004 H       1  LIG1        0.0624
     25 H           4.5646   10.0174   -0.0010 H       1  LIG1        0.0618
@<TRIPOS>BOND
     1    23    18    1
     2    19    16    1
     3    14    10    1
     4    18    16   ar
     5    18    21   ar
     6    16    15   ar
     7    10     9   ar
     8    10    11   ar
     9    25    21    1
    10    21    20   ar
    11    15    24    1
    12    15    17   ar
    13    13     9    1
    14     9     8   ar
    15    11    17    1
    16    11    12   ar
    17     6     4   ar
    18     6     3   ar
    19    17    20   ar
    20    20    22    1
    21     1     7    1
    22     1     4   ar
    23     1     2   ar
    24     8     3    1
    25     8    12   ar
    26     5     3   ar
    27     5     2   ar
