@<TRIPOS>MOLECULE
mol_data/noopt/geoms/mol2/854-4.out
 35 38 0 0 0
SMALL
GASTEIGER

@<TRIPOS>ATOM
      1 C          -0.0089   -0.0179   -0.0000 C.ar    1  LIG1        0.1605
      2 N           1.3522   -0.0179   -0.0000 N.ar    1  LIG1       -0.1339
      3 C           1.1968    2.3931   -0.0000 C.ar    1  LIG1        0.2098
      4 N          -0.8254    1.0712   -0.0000 N.ar    1  LIG1       -0.1339
      5 N           1.9401    1.1968   -0.0000 N.ar    1  LIG1       -0.1253
      6 N          -0.2061    2.2702   -0.0001 N.ar    1  LIG1       -0.1253
      7 H          -0.5904   -1.1806   -0.0000 H       1  LIG1        0.1085
      8 C           1.7783    3.5558    0.0000 C.ar    1  LIG1        0.0604
      9 C           3.1381    3.7738   -0.0004 C.ar    1  LIG1       -0.0432
     10 C           3.4460    5.1724   -0.0010 C.ar    1  LIG1       -0.0462
     11 C           2.3034    5.9413   -0.0003 C.ar    1  LIG1        0.0200
     12 S           0.9254    4.9941    0.0004 S.2     1  LIG1       -0.0850
     13 H           4.0488    2.8460   -0.0004 H       1  LIG1        0.0630
     14 H           4.6621    5.6321   -0.0022 H       1  LIG1        0.0629
     15 C           1.0205    7.9055   -0.0006 C.ar    1  LIG1       -0.0530
     16 C           1.0311    9.3137   -0.0018 C.ar    1  LIG1       -0.0534
     17 C           2.2638    7.2406   -0.0000 C.ar    1  LIG1       -0.0113
     18 C           2.2257   10.0304   -0.0018 C.ar    1  LIG1       -0.0178
     19 H           0.0829    9.8467   -0.0025 H       1  LIG1        0.0624
     20 C           3.4566    7.9556   -0.0000 C.ar    1  LIG1       -0.0530
     21 C           3.4464    9.3543   -0.0008 C.ar    1  LIG1       -0.0534
     22 H           4.4025    7.4199    0.0004 H       1  LIG1        0.0624
     23 H          -0.1259    7.2924   -0.0004 H       1  LIG1        0.0624
     24 H           4.5646   10.0174   -0.0010 H       1  LIG1        0.0624
     25 C           3.4062   12.0578   -0.0027 C.ar    1  LIG1       -0.0540
     26 C           3.3233   13.4637   -0.0023 C.ar    1  LIG1       -0.0612
     27 C           2.1986   11.3301   -0.0029 C.ar    1  LIG1       -0.0179
     28 C           2.0935   14.1181   -0.0027 C.ar    1  LIG1       -0.0617
     29 H           4.2429   14.0446   -0.0019 H       1  LIG1        0.0618
     30 C           0.9707   11.9829   -0.0033 C.ar    1  LIG1       -0.0540
     31 C           0.9091   13.3803   -0.0033 C.ar    1  LIG1       -0.0612
     32 H           0.0535   11.3994   -0.0033 H       1  LIG1        0.0624
     33 H           2.0538   15.4175   -0.0024 H       1  LIG1        0.0618
     34 H           4.5825   11.5044   -0.0025 H       1  LIG1        0.0624
     35 H          -0.2417   13.9851   -0.0035 H       1  LIG1        0.0618
@<TRIPOS>BOND
     1    35    31    1
     2    32    30    1
     3    31    30   ar
     4    31    28   ar
     5    30    27   ar
     6    27    25   ar
     7    27    18    1
     8    28    33    1
     9    28    26   ar
    10    25    34    1
    11    25    26   ar
    12    19    16    1
    13    26    29    1
    14    14    10    1
    15    18    16   ar
    16    18    21   ar
    17    16    15   ar
    18    10     9   ar
    19    10    11   ar
    20    24    21    1
    21    21    20   ar
    22    15    23    1
    23    15    17   ar
    24    13     9    1
    25     9     8   ar
    26    11    17    1
    27    11    12   ar
    28     6     3   ar
    29     6     4   ar
    30    17    20   ar
    31    20    22    1
    32     2     5   ar
    33     2     1   ar
    34     3     5   ar
    35     3     8    1
    36     4     1   ar
    37     7     1    1
    38     8    12   ar
