@<TRIPOS>MOLECULE
mol_data/noopt/geoms/mol2/854-8-.out
 31 34 0 0 0
SMALL
GASTEIGER

@<TRIPOS>ATOM
      1 C          -0.0089   -0.0179   -0.0000 C.ar    1  LIG1        0.1605
      2 N           1.3522   -0.0179   -0.0000 N.ar    1  LIG1       -0.1339
      3 C           1.1968    2.3931   -0.0000 C.ar    1  LIG1        0.2098
      4 N          -0.8254    1.0712   -0.0000 N.ar    1  LIG1       -0.1339
      5 N           1.9401    1.1968   -0.0000 N.ar    1  LIG1       -0.1253
      6 N          -0.2061    2.2702   -0.0001 N.ar    1  LIG1       -0.1253
      7 H          -0.5904   -1.1806   -0.0000 H       1  LIG1        0.1085
      8 C           1.7783    3.5558    0.0000 C.ar    1  LIG1        0.0604
      9 C           3.1381    3.7738   -0.0004 C.ar    1  LIG1       -0.0432
     10 C           3.4460    5.1724   -0.0010 C.ar    1  LIG1       -0.0462
     11 C           2.3034    5.9413   -0.0003 C.ar    1  LIG1        0.0200
     12 S           0.9254    4.9941    0.0004 S.2     1  LIG1       -0.0850
     13 H           4.0488    2.8460   -0.0004 H       1  LIG1        0.0630
     14 H           4.6621    5.6321   -0.0022 H       1  LIG1        0.0629
     15 C           1.0205    7.9055   -0.0006 C.ar    1  LIG1       -0.0529
     16 C           1.0311    9.3137   -0.0018 C.ar    1  LIG1       -0.0503
     17 C           2.2638    7.2406   -0.0000 C.ar    1  LIG1       -0.0113
     18 C           2.2257   10.0304   -0.0018 C.ar    1  LIG1        0.0227
     19 H           0.0829    9.8467   -0.0025 H       1  LIG1        0.0625
     20 C           3.4566    7.9556   -0.0000 C.ar    1  LIG1       -0.0529
     21 C           3.4464    9.3543   -0.0008 C.ar    1  LIG1       -0.0503
     22 H           4.4025    7.4199    0.0004 H       1  LIG1        0.0624
     23 H          -0.1259    7.2924   -0.0004 H       1  LIG1        0.0624
     24 H           4.5646   10.0174   -0.0010 H       1  LIG1        0.0625
     25 C           2.1986   11.3301   -0.0029 C.ar    1  LIG1        0.2033
     26 N           0.9689   11.9135   -0.0034 N.ar    1  LIG1       -0.1258
     27 C           2.1426   14.0252   -0.0050 C.ar    1  LIG1        0.1605
     28 N           3.4031   11.9642   -0.0034 N.ar    1  LIG1       -0.1258
     29 N           0.9583   13.2629   -0.0044 N.ar    1  LIG1       -0.1339
     30 N           3.3574   13.3129   -0.0043 N.ar    1  LIG1       -0.1339
     31 H           2.1155   15.3249   -0.0060 H       1  LIG1        0.1085
@<TRIPOS>BOND
     1    31    27    1
     2    27    29   ar
     3    27    30   ar
     4    29    26   ar
     5    30    28   ar
     6    28    25   ar
     7    26    25   ar
     8    25    18    1
     9    19    16    1
    10    14    10    1
    11    18    16   ar
    12    18    21   ar
    13    16    15   ar
    14    10     9   ar
    15    10    11   ar
    16    24    21    1
    17    21    20   ar
    18    15    23    1
    19    15    17   ar
    20    13     9    1
    21     9     8   ar
    22    11    17    1
    23    11    12   ar
    24     6     3   ar
    25     6     4   ar
    26    17    20   ar
    27    20    22    1
    28     3     5   ar
    29     3     8    1
    30     4     1   ar
    31     5     2   ar
    32     7     1    1
    33     8    12   ar
    34     2     1   ar
