@<TRIPOS>MOLECULE
mol_data/noopt/geoms/mol2/854.out
 25 27 0 0 0
SMALL
GASTEIGER

@<TRIPOS>ATOM
      1 C          -0.0089   -0.0179   -0.0000 C.ar    1  LIG1        0.1605
      2 N           1.3522   -0.0179   -0.0000 N.ar    1  LIG1       -0.1339
      3 C           1.1968    2.3931   -0.0000 C.ar    1  LIG1        0.2098
      4 N          -0.8254    1.0712   -0.0000 N.ar    1  LIG1       -0.1339
      5 N           1.9401    1.1968   -0.0000 N.ar    1  LIG1       -0.1253
      6 N          -0.2061    2.2702   -0.0001 N.ar    1  LIG1       -0.1253
      7 H          -0.5904   -1.1806   -0.0000 H       1  LIG1        0.1085
      8 C           1.7783    3.5558    0.0000 C.ar    1  LIG1        0.0604
      9 C           3.1381    3.7738   -0.0004 C.ar    1  LIG1       -0.0432
     10 C           3.4460    5.1724   -0.0010 C.ar    1  LIG1       -0.0462
     11 C           2.3034    5.9413   -0.0003 C.ar    1  LIG1        0.0200
     12 S           0.9254    4.9941    0.0004 S.2     1  LIG1       -0.0850
     13 H           4.0488    2.8460   -0.0004 H       1  LIG1        0.0630
     14 H           4.6621    5.6321   -0.0022 H       1  LIG1        0.0629
     15 C           3.4642    7.9801    0.0009 C.ar    1  LIG1       -0.0535
     16 C           3.3677    9.3850    0.0027 C.ar    1  LIG1       -0.0612
     17 C           2.2638    7.2406   -0.0000 C.ar    1  LIG1       -0.0113
     18 C           2.1316   10.0275    0.0030 C.ar    1  LIG1       -0.0617
     19 H           4.2816    9.9749    0.0036 H       1  LIG1        0.0618
     20 C           1.0295    7.8815    0.0003 C.ar    1  LIG1       -0.0535
     21 C           0.9544    9.2783    0.0016 C.ar    1  LIG1       -0.0612
     22 H           0.1181    7.2891   -0.0004 H       1  LIG1        0.0624
     23 H           2.0793   11.3265    0.0045 H       1  LIG1        0.0618
     24 H           4.6458    7.4380    0.0004 H       1  LIG1        0.0624
     25 H          -0.2022    9.8718    0.0021 H       1  LIG1        0.0618
@<TRIPOS>BOND
     1    14    10    1
     2    10     9   ar
     3    10    11   ar
     4    13     9    1
     5    22    20    1
     6     9     8   ar
     7    11    17    1
     8    11    12   ar
     9     6     4   ar
    10     6     3   ar
    11    17    20   ar
    12    17    15   ar
    13     1     7    1
    14     1     4   ar
    15     1     2   ar
    16     8     3    1
    17     8    12   ar
    18     5     3   ar
    19     5     2   ar
    20    20    21   ar
    21    24    15    1
    22    15    16   ar
    23    21    25    1
    24    21    18   ar
    25    16    18   ar
    26    16    19    1
    27    18    23    1
