@<TRIPOS>MOLECULE
mol_data/noopt/geoms/mol2/85513.out
 30 33 0 0 0
SMALL
GASTEIGER

@<TRIPOS>ATOM
      1 C          -0.0089   -0.0179   -0.0000 C.ar    1  LIG1        0.1605
      2 N           1.3522   -0.0179   -0.0000 N.ar    1  LIG1       -0.1339
      3 C           1.1968    2.3931   -0.0000 C.ar    1  LIG1        0.2098
      4 N          -0.8254    1.0712   -0.0000 N.ar    1  LIG1       -0.1339
      5 N           1.9401    1.1968   -0.0000 N.ar    1  LIG1       -0.1253
      6 N          -0.2061    2.2702   -0.0001 N.ar    1  LIG1       -0.1253
      7 H          -0.5904   -1.1806   -0.0000 H       1  LIG1        0.1085
      8 C           1.7783    3.5558    0.0000 C.ar    1  LIG1        0.0604
      9 C           3.1381    3.7738   -0.0004 C.ar    1  LIG1       -0.0432
     10 C           3.4460    5.1724   -0.0010 C.ar    1  LIG1       -0.0457
     11 C           2.3034    5.9413   -0.0003 C.ar    1  LIG1        0.0266
     12 S           0.9254    4.9941    0.0004 S.2     1  LIG1       -0.0845
     13 H           4.0488    2.8460   -0.0004 H       1  LIG1        0.0630
     14 H           4.6621    5.6321   -0.0022 H       1  LIG1        0.0629
     15 C           2.2638    7.2407   -0.0000 C.ar    1  LIG1        0.0265
     16 C           3.3575    8.0777   -0.0002 C.ar    1  LIG1       -0.0458
     17 C           2.9650    9.4550   -0.0006 C.ar    1  LIG1       -0.0449
     18 C           1.5944    9.5898    0.0002 C.ar    1  LIG1        0.0361
     19 S           0.8306    8.1023    0.0006 S.2     1  LIG1       -0.0863
     20 H           4.5992    7.6929   -0.0003 H       1  LIG1        0.0629
     21 H           3.8174   10.4365   -0.0015 H       1  LIG1        0.0630
     22 C           0.9431   10.7149    0.0007 C.ar    1  LIG1        0.0531
     23 C           1.3964   11.9964    0.0007 C.ar    1  LIG1       -0.0359
     24 C           0.2507   12.8554    0.0025 C.ar    1  LIG1       -0.0438
     25 C          -0.8525   12.0610    0.0018 C.ar    1  LIG1        0.0022
     26 N          -0.4331   10.7497    0.0012 N.ar    1  LIG1       -0.3603
     27 H          -1.0294    9.9544    0.0004 H       1  LIG1        0.1653
     28 H          -2.1150   12.3707    0.0027 H       1  LIG1        0.0807
     29 H           2.6417   12.3696    0.0006 H       1  LIG1        0.0639
     30 H           0.2597   14.1554    0.0041 H       1  LIG1        0.0633
@<TRIPOS>BOND
     1    14    10    1
     2    21    17    1
     3    10     9   ar
     4    10    11   ar
     5    17    16   ar
     6    17    18   ar
     7    13     9    1
     8     9     8   ar
     9    20    16    1
    10    11    15    1
    11    11    12   ar
    12    16    15   ar
    13     6     4   ar
    14     6     3   ar
    15    15    19   ar
    16     1     7    1
    17     1     4   ar
    18     1     2   ar
    19     8     3    1
    20     8    12   ar
    21     5     3   ar
    22     5     2   ar
    23    18    19   ar
    24    18    22    1
    25    27    26    1
    26    29    23    1
    27    23    22   ar
    28    23    24   ar
    29    22    26   ar
    30    26    25   ar
    31    25    24   ar
    32    25    28    1
    33    24    30    1
