@<TRIPOS>MOLECULE
mol_data/noopt/geoms/mol2/858.out
 21 23 0 0 0
SMALL
GASTEIGER

@<TRIPOS>ATOM
      1 C          -0.0089   -0.0179   -0.0000 C.ar    1  LIG1        0.1605
      2 N           1.3522   -0.0179   -0.0000 N.ar    1  LIG1       -0.1339
      3 C           1.1968    2.3931   -0.0000 C.ar    1  LIG1        0.2099
      4 N          -0.8254    1.0712   -0.0000 N.ar    1  LIG1       -0.1339
      5 N           1.9401    1.1968   -0.0000 N.ar    1  LIG1       -0.1253
      6 N          -0.2061    2.2702   -0.0001 N.ar    1  LIG1       -0.1253
      7 H          -0.5904   -1.1806   -0.0000 H       1  LIG1        0.1085
      8 C           1.7783    3.5558    0.0000 C.ar    1  LIG1        0.0605
      9 C           3.1381    3.7738   -0.0004 C.ar    1  LIG1       -0.0431
     10 C           3.4460    5.1724   -0.0010 C.ar    1  LIG1       -0.0431
     11 C           2.3034    5.9413   -0.0003 C.ar    1  LIG1        0.0605
     12 S           0.9254    4.9941    0.0004 S.2     1  LIG1       -0.0818
     13 H           4.0488    2.8460   -0.0004 H       1  LIG1        0.0630
     14 H           4.6621    5.6321   -0.0022 H       1  LIG1        0.0630
     15 C           2.2638    7.2407   -0.0000 C.ar    1  LIG1        0.2099
     16 N           3.4620    7.8864    0.0001 N.ar    1  LIG1       -0.1253
     17 C           2.1814    9.9351    0.0005 C.ar    1  LIG1        0.1605
     18 N           1.0283    7.8121    0.0001 N.ar    1  LIG1       -0.1253
     19 N           3.4033    9.2346    0.0004 N.ar    1  LIG1       -0.1339
     20 N           1.0047    9.1614    0.0003 N.ar    1  LIG1       -0.1339
     21 H           2.1417   11.2345    0.0008 H       1  LIG1        0.1085
@<TRIPOS>BOND
     1    14    10    1
     2    10     9   ar
     3    10    11   ar
     4    13     9    1
     5     9     8   ar
     6    11    15    1
     7    11    12   ar
     8     6     4   ar
     9     6     3   ar
    10    15    16   ar
    11    15    18   ar
    12     1     7    1
    13     1     4   ar
    14     1     2   ar
    15     8     3    1
    16     8    12   ar
    17     5     3   ar
    18     5     2   ar
    19    16    19   ar
    20    18    20   ar
    21    20    17   ar
    22    19    17   ar
    23    17    21    1
