@<TRIPOS>MOLECULE
mol_data/noopt/geoms/mol2/88-.out
 14 15 0 0 0
SMALL
GASTEIGER

@<TRIPOS>ATOM
      1 C          -0.0089   -0.0179   -0.0000 C.ar    1  LIG1        0.1605
      2 N           1.3522   -0.0179   -0.0000 N.ar    1  LIG1       -0.1338
      3 C           1.1968    2.3931   -0.0000 C.ar    1  LIG1        0.2434
      4 N          -0.8254    1.0712   -0.0000 N.ar    1  LIG1       -0.1338
      5 N           1.9401    1.1968   -0.0000 N.ar    1  LIG1       -0.1224
      6 N          -0.2061    2.2702   -0.0001 N.ar    1  LIG1       -0.1224
      7 H          -0.5904   -1.1806   -0.0000 H       1  LIG1        0.1085
      8 C           1.7783    3.5558    0.0000 C.ar    1  LIG1        0.2434
      9 N           0.9619    4.6448    0.0000 N.ar    1  LIG1       -0.1224
     10 C           2.9842    5.9667   -0.0000 C.ar    1  LIG1        0.1605
     11 N           3.1395    3.5558   -0.0000 N.ar    1  LIG1       -0.1224
     12 N           1.5811    5.8439    0.0000 N.ar    1  LIG1       -0.1338
     13 N           3.7274    4.7705    0.0001 N.ar    1  LIG1       -0.1338
     14 H           3.5657    7.1294   -0.0000 H       1  LIG1        0.1085
@<TRIPOS>BOND
     1     6     3   ar
     2     6     4   ar
     3     1     2   ar
     4     1     4   ar
     5     1     7    1
     6     2     5   ar
     7     3     5   ar
     8     3     8    1
     9     8     9   ar
    10     8    11   ar
    11     9    12   ar
    12    10    12   ar
    13    10    14    1
    14    10    13   ar
    15    11    13   ar
