@<TRIPOS>MOLECULE
mol_data/noopt/geoms/mol2/88-1312-.out
 29 32 0 0 0
SMALL
GASTEIGER

@<TRIPOS>ATOM
      1 C          -0.0089   -0.0179   -0.0000 C.ar    1  LIG1        0.1605
      2 N           1.3522   -0.0179   -0.0000 N.ar    1  LIG1       -0.1338
      3 C           1.1968    2.3931   -0.0000 C.ar    1  LIG1        0.2434
      4 N          -0.8254    1.0712   -0.0000 N.ar    1  LIG1       -0.1338
      5 N           1.9401    1.1968   -0.0000 N.ar    1  LIG1       -0.1224
      6 N          -0.2061    2.2702   -0.0001 N.ar    1  LIG1       -0.1224
      7 H          -0.5904   -1.1806   -0.0000 H       1  LIG1        0.1085
      8 C           1.7783    3.5558    0.0000 C.ar    1  LIG1        0.2435
      9 N           0.9619    4.6448    0.0000 N.ar    1  LIG1       -0.1218
     10 C           2.9842    5.9667   -0.0000 C.ar    1  LIG1        0.2194
     11 N           3.1395    3.5558   -0.0000 N.ar    1  LIG1       -0.1218
     12 N           1.5811    5.8439    0.0000 N.ar    1  LIG1       -0.1236
     13 N           3.7274    4.7705    0.0001 N.ar    1  LIG1       -0.1236
     14 C           3.5657    7.1294   -0.0000 C.ar    1  LIG1        0.0880
     15 C           4.8854    7.4555   -0.0004 C.ar    1  LIG1       -0.0325
     16 C           4.9728    8.8848    0.0009 C.ar    1  LIG1       -0.0327
     17 C           3.7026    9.3693    0.0003 C.ar    1  LIG1        0.0826
     18 N           2.8380    8.2980    0.0002 N.ar    1  LIG1       -0.3492
     19 H           1.8459    8.3587   -0.0004 H       1  LIG1        0.1661
     20 H           5.8819    6.6206   -0.0003 H       1  LIG1        0.0640
     21 H           6.0635    9.5922    0.0021 H       1  LIG1        0.0640
     22 C           3.2670   10.5942    0.0008 C.ar    1  LIG1        0.1509
     23 C           2.0260   11.1965    0.0013 C.ar    1  LIG1       -0.0144
     24 C           2.2586   12.6258    0.0018 C.ar    1  LIG1       -0.0233
     25 C           3.6270   12.8021    0.0017 C.ar    1  LIG1        0.0926
     26 O           4.2705   11.5640    0.0013 O.2     1  LIG1       -0.4615
     27 H           4.4291   13.8251    0.0020 H       1  LIG1        0.1029
     28 H           0.8612   10.6191    0.0011 H       1  LIG1        0.0656
     29 H           1.3376   13.5433    0.0023 H       1  LIG1        0.0649
@<TRIPOS>BOND
     1    19    18    1
     2    15    20    1
     3    15    14   ar
     4    15    16   ar
     5     6     3   ar
     6     6     4   ar
     7     1     2   ar
     8     1     4   ar
     9     1     7    1
    10    14    10    1
    11    14    18   ar
    12    12    10   ar
    13    12     9   ar
    14    11     8   ar
    15    11    13   ar
    16    10    13   ar
    17     9     8   ar
    18     2     5   ar
    19     3     5   ar
    20     3     8    1
    21    18    17   ar
    22    17    22    1
    23    17    16   ar
    24    22    26   ar
    25    22    23   ar
    26    16    21    1
    27    28    23    1
    28    26    25   ar
    29    23    24   ar
    30    25    24   ar
    31    25    27    1
    32    24    29    1
