@<TRIPOS>MOLECULE
mol_data/noopt/geoms/mol2/88-13-12.out
 29 32 0 0 0
SMALL
GASTEIGER

@<TRIPOS>ATOM
      1 C          -0.0089   -0.0179   -0.0000 C.ar    1  LIG1        0.1605
      2 N           1.3522   -0.0179   -0.0000 N.ar    1  LIG1       -0.1338
      3 C           1.1968    2.3931   -0.0000 C.ar    1  LIG1        0.2434
      4 N          -0.8254    1.0712   -0.0000 N.ar    1  LIG1       -0.1338
      5 N           1.9401    1.1968   -0.0000 N.ar    1  LIG1       -0.1224
      6 N          -0.2061    2.2702   -0.0001 N.ar    1  LIG1       -0.1224
      7 H          -0.5904   -1.1806   -0.0000 H       1  LIG1        0.1085
      8 C           1.7783    3.5558    0.0000 C.ar    1  LIG1        0.2435
      9 N           0.9619    4.6448    0.0000 N.ar    1  LIG1       -0.1218
     10 C           2.9842    5.9667   -0.0000 C.ar    1  LIG1        0.2194
     11 N           3.1395    3.5558   -0.0000 N.ar    1  LIG1       -0.1218
     12 N           1.5811    5.8439    0.0000 N.ar    1  LIG1       -0.1236
     13 N           3.7274    4.7705    0.0001 N.ar    1  LIG1       -0.1236
     14 C           3.5657    7.1294    0.0000 C.ar    1  LIG1        0.0880
     15 C           3.0350    8.3809    0.0005 C.ar    1  LIG1       -0.0325
     16 C           4.1262    9.3082   -0.0009 C.ar    1  LIG1       -0.0327
     17 C           5.2758    8.5826   -0.0004 C.ar    1  LIG1        0.0826
     18 N           4.9372    7.2482   -0.0003 N.ar    1  LIG1       -0.3492
     19 H           5.5808    6.4907    0.0001 H       1  LIG1        0.1661
     20 H           1.7692    8.6774    0.0006 H       1  LIG1        0.0640
     21 H           4.0379   10.6052   -0.0019 H       1  LIG1        0.0640
     22 C           6.5171    8.9687   -0.0011 C.ar    1  LIG1        0.1509
     23 C           7.7435    8.3370   -0.0016 C.ar    1  LIG1       -0.0144
     24 C           8.7475    9.3805   -0.0023 C.ar    1  LIG1       -0.0233
     25 C           8.0677   10.5811   -0.0022 C.ar    1  LIG1        0.0926
     26 O           6.6912   10.3534   -0.0016 O.2     1  LIG1       -0.4615
     27 H           8.4052   11.8366   -0.0026 H       1  LIG1        0.1029
     28 H           7.9801    7.0588   -0.0014 H       1  LIG1        0.0656
     29 H          10.0341    9.1940   -0.0029 H       1  LIG1        0.0649
@<TRIPOS>BOND
     1    29    24    1
     2    27    25    1
     3    24    25   ar
     4    24    23   ar
     5    25    26   ar
     6    21    16    1
     7    23    28    1
     8    23    22   ar
     9    26    22   ar
    10    22    17    1
    11    16    17   ar
    12    16    15   ar
    13    17    18   ar
    14    18    14   ar
    15    18    19    1
    16     6     4   ar
    17     6     3   ar
    18     1     7    1
    19     1     4   ar
    20     1     2   ar
    21    14    10    1
    22    14    15   ar
    23    12    10   ar
    24    12     9   ar
    25    11     8   ar
    26    11    13   ar
    27    10    13   ar
    28     9     8   ar
    29     8     3    1
    30     5     3   ar
    31     5     2   ar
    32    15    20    1
