@<TRIPOS>MOLECULE
mol_data/noopt/geoms/mol2/88-13.out
 22 24 0 0 0
SMALL
GASTEIGER

@<TRIPOS>ATOM
      1 C          -0.0089   -0.0179   -0.0000 C.ar    1  LIG1        0.1605
      2 N           1.3522   -0.0179   -0.0000 N.ar    1  LIG1       -0.1338
      3 C           1.1968    2.3931   -0.0000 C.ar    1  LIG1        0.2434
      4 N          -0.8254    1.0712   -0.0000 N.ar    1  LIG1       -0.1338
      5 N           1.9401    1.1968   -0.0000 N.ar    1  LIG1       -0.1224
      6 N          -0.2061    2.2702   -0.0001 N.ar    1  LIG1       -0.1224
      7 H          -0.5904   -1.1806   -0.0000 H       1  LIG1        0.1085
      8 C           1.7783    3.5558    0.0000 C.ar    1  LIG1        0.2435
      9 N           0.9619    4.6448    0.0000 N.ar    1  LIG1       -0.1218
     10 C           2.9842    5.9667   -0.0000 C.ar    1  LIG1        0.2194
     11 N           3.1395    3.5558   -0.0000 N.ar    1  LIG1       -0.1218
     12 N           1.5811    5.8439    0.0000 N.ar    1  LIG1       -0.1236
     13 N           3.7274    4.7705    0.0001 N.ar    1  LIG1       -0.1236
     14 C           3.5657    7.1294   -0.0000 C.ar    1  LIG1        0.0875
     15 C           4.8854    7.4555   -0.0004 C.ar    1  LIG1       -0.0333
     16 C           4.9728    8.8848    0.0009 C.ar    1  LIG1       -0.0437
     17 C           3.7026    9.3693    0.0003 C.ar    1  LIG1        0.0023
     18 N           2.8380    8.2980    0.0002 N.ar    1  LIG1       -0.3582
     19 H           1.8459    8.3587   -0.0004 H       1  LIG1        0.1654
     20 H           3.2670   10.5942    0.0008 H       1  LIG1        0.0807
     21 H           5.8819    6.6206   -0.0003 H       1  LIG1        0.0640
     22 H           6.0635    9.5922    0.0021 H       1  LIG1        0.0633
@<TRIPOS>BOND
     1    19    18    1
     2    15    21    1
     3    15    14   ar
     4    15    16   ar
     5     6     4   ar
     6     6     3   ar
     7     1     7    1
     8     1     4   ar
     9     1     2   ar
    10    14    10    1
    11    14    18   ar
    12    12    10   ar
    13    12     9   ar
    14    11     8   ar
    15    11    13   ar
    16    10    13   ar
    17     9     8   ar
    18     8     3    1
    19     5     3   ar
    20     5     2   ar
    21    18    17   ar
    22    17    20    1
    23    17    16   ar
    24    16    22    1
