@<TRIPOS>MOLECULE
mol_data/noopt/geoms/mol2/88-13-.out
 22 24 0 0 0
SMALL
GASTEIGER

@<TRIPOS>ATOM
      1 C          -0.0089   -0.0179   -0.0000 C.ar    1  LIG1        0.1605
      2 N           1.3522   -0.0179   -0.0000 N.ar    1  LIG1       -0.1338
      3 C           1.1968    2.3931   -0.0000 C.ar    1  LIG1        0.2434
      4 N          -0.8254    1.0712   -0.0000 N.ar    1  LIG1       -0.1338
      5 N           1.9401    1.1968   -0.0000 N.ar    1  LIG1       -0.1224
      6 N          -0.2061    2.2702   -0.0001 N.ar    1  LIG1       -0.1224
      7 H          -0.5904   -1.1806   -0.0000 H       1  LIG1        0.1085
      8 C           1.7783    3.5558    0.0000 C.ar    1  LIG1        0.2435
      9 N           0.9619    4.6448    0.0000 N.ar    1  LIG1       -0.1218
     10 C           2.9842    5.9667   -0.0000 C.ar    1  LIG1        0.2194
     11 N           3.1395    3.5558   -0.0000 N.ar    1  LIG1       -0.1218
     12 N           1.5811    5.8439    0.0000 N.ar    1  LIG1       -0.1236
     13 N           3.7274    4.7705    0.0001 N.ar    1  LIG1       -0.1236
     14 C           3.5657    7.1294    0.0000 C.ar    1  LIG1        0.0875
     15 C           3.0350    8.3809    0.0005 C.ar    1  LIG1       -0.0333
     16 C           4.1262    9.3082   -0.0009 C.ar    1  LIG1       -0.0437
     17 C           5.2758    8.5826   -0.0004 C.ar    1  LIG1        0.0023
     18 N           4.9372    7.2482   -0.0003 N.ar    1  LIG1       -0.3582
     19 H           5.5808    6.4907    0.0001 H       1  LIG1        0.1654
     20 H           6.5171    8.9687   -0.0011 H       1  LIG1        0.0807
     21 H           1.7692    8.6774    0.0006 H       1  LIG1        0.0640
     22 H           4.0379   10.6052   -0.0019 H       1  LIG1        0.0633
@<TRIPOS>BOND
     1    22    16    1
     2    20    17    1
     3    16    17   ar
     4    16    15   ar
     5    17    18   ar
     6    18    14   ar
     7    18    19    1
     8     6     4   ar
     9     6     3   ar
    10    12    10   ar
    11    12     9   ar
    12    14    10    1
    13    14    15   ar
    14     1     7    1
    15     1     4   ar
    16     1     2   ar
    17    11     8   ar
    18    11    13   ar
    19    10    13   ar
    20     9     8   ar
    21     8     3    1
    22     5     3   ar
    23     5     2   ar
    24    15    21    1
