@<TRIPOS>MOLECULE
mol_data/noopt/geoms/mol2/88-4.out
 24 26 0 0 0
SMALL
GASTEIGER

@<TRIPOS>ATOM
      1 C          -0.0089   -0.0179   -0.0000 C.ar    1  LIG1        0.1605
      2 N           1.3522   -0.0179   -0.0000 N.ar    1  LIG1       -0.1338
      3 C           1.1968    2.3931   -0.0000 C.ar    1  LIG1        0.2434
      4 N          -0.8254    1.0712   -0.0000 N.ar    1  LIG1       -0.1338
      5 N           1.9401    1.1968   -0.0000 N.ar    1  LIG1       -0.1224
      6 N          -0.2061    2.2702   -0.0001 N.ar    1  LIG1       -0.1224
      7 H          -0.5904   -1.1806   -0.0000 H       1  LIG1        0.1085
      8 C           1.7783    3.5558    0.0000 C.ar    1  LIG1        0.2435
      9 N           0.9619    4.6448    0.0000 N.ar    1  LIG1       -0.1218
     10 C           2.9842    5.9667   -0.0000 C.ar    1  LIG1        0.2034
     11 N           3.1395    3.5558   -0.0000 N.ar    1  LIG1       -0.1218
     12 N           1.5811    5.8439    0.0000 N.ar    1  LIG1       -0.1251
     13 N           3.7274    4.7705    0.0001 N.ar    1  LIG1       -0.1251
     14 C           4.9732    7.2108    0.0008 C.ar    1  LIG1       -0.0509
     15 C           5.5547    8.4934    0.0023 C.ar    1  LIG1       -0.0611
     16 C           3.5657    7.1294   -0.0000 C.ar    1  LIG1        0.0226
     17 C           4.7714    9.6454    0.0024 C.ar    1  LIG1       -0.0617
     18 H           6.6391    8.5791    0.0031 H       1  LIG1        0.0618
     19 C           2.7832    8.2791    0.0001 C.ar    1  LIG1       -0.0509
     20 C           3.3796    9.5443    0.0012 C.ar    1  LIG1       -0.0611
     21 H           1.6998    8.1900   -0.0004 H       1  LIG1        0.0625
     22 H           5.3416   10.8137    0.0037 H       1  LIG1        0.0618
     23 H           5.7563    6.1731    0.0004 H       1  LIG1        0.0625
     24 H           2.6431   10.6155    0.0015 H       1  LIG1        0.0618
@<TRIPOS>BOND
     1    21    19    1
     2     6     3   ar
     3     6     4   ar
     4     2     5   ar
     5     2     1   ar
     6     3     5   ar
     7     3     8    1
     8     4     1   ar
     9     7     1    1
    10     8     9   ar
    11     8    11   ar
    12     9    12   ar
    13    10    12   ar
    14    10    16    1
    15    10    13   ar
    16    11    13   ar
    17    16    19   ar
    18    16    14   ar
    19    19    20   ar
    20    23    14    1
    21    14    15   ar
    22    20    24    1
    23    20    17   ar
    24    15    17   ar
    25    15    18    1
    26    17    22    1
