@<TRIPOS>MOLECULE
mol_data/noopt/geoms/mol2/88-4-8.out
 30 33 0 0 0
SMALL
GASTEIGER

@<TRIPOS>ATOM
      1 C          -0.0089   -0.0179   -0.0000 C.ar    1  LIG1        0.1605
      2 N           1.3522   -0.0179   -0.0000 N.ar    1  LIG1       -0.1338
      3 C           1.1968    2.3931   -0.0000 C.ar    1  LIG1        0.2434
      4 N          -0.8254    1.0712   -0.0000 N.ar    1  LIG1       -0.1338
      5 N           1.9401    1.1968   -0.0000 N.ar    1  LIG1       -0.1224
      6 N          -0.2061    2.2702   -0.0001 N.ar    1  LIG1       -0.1224
      7 H          -0.5904   -1.1806   -0.0000 H       1  LIG1        0.1085
      8 C           1.7783    3.5558    0.0000 C.ar    1  LIG1        0.2435
      9 N           0.9619    4.6448    0.0000 N.ar    1  LIG1       -0.1218
     10 C           2.9842    5.9667   -0.0000 C.ar    1  LIG1        0.2034
     11 N           3.1395    3.5558   -0.0000 N.ar    1  LIG1       -0.1218
     12 N           1.5811    5.8439    0.0000 N.ar    1  LIG1       -0.1251
     13 N           3.7274    4.7705    0.0001 N.ar    1  LIG1       -0.1251
     14 C           2.7865    8.3044   -0.0007 C.ar    1  LIG1       -0.0503
     15 C           3.4640    9.5391   -0.0023 C.ar    1  LIG1       -0.0503
     16 C           3.5657    7.1294   -0.0000 C.ar    1  LIG1        0.0227
     17 C           4.8556    9.6033   -0.0024 C.ar    1  LIG1        0.0227
     18 H           2.8821   10.4581   -0.0031 H       1  LIG1        0.0625
     19 C           4.9549    7.1929   -0.0001 C.ar    1  LIG1       -0.0503
     20 C           5.6095    8.4291   -0.0012 C.ar    1  LIG1       -0.0503
     21 H           5.5335    6.2726    0.0004 H       1  LIG1        0.0625
     22 H           1.4865    8.3085   -0.0004 H       1  LIG1        0.0625
     23 H           6.9084    8.4823   -0.0015 H       1  LIG1        0.0625
     24 C           5.4483   10.7603   -0.0037 C.ar    1  LIG1        0.2033
     25 N           6.8093   10.7471   -0.0043 N.ar    1  LIG1       -0.1258
     26 C           6.6773   13.1595   -0.0064 C.ar    1  LIG1        0.1605
     27 N           4.6424   11.8573   -0.0043 N.ar    1  LIG1       -0.1258
     28 N           7.4090   11.9560   -0.0057 N.ar    1  LIG1       -0.1339
     29 N           5.2733   13.0502   -0.0058 N.ar    1  LIG1       -0.1339
     30 H           7.2701   14.3165   -0.0077 H       1  LIG1        0.1085
@<TRIPOS>BOND
     1    30    26    1
     2    26    29   ar
     3    26    28   ar
     4    29    27   ar
     5    28    25   ar
     6    27    24   ar
     7    25    24   ar
     8    24    17    1
     9    18    15    1
    10    17    15   ar
    11    17    20   ar
    12    15    14   ar
    13    23    20    1
    14    20    19   ar
    15    14    22    1
    16    14    16   ar
    17    19    16   ar
    18    19    21    1
    19     6     4   ar
    20     6     3   ar
    21    16    10    1
    22     1     7    1
    23     1     4   ar
    24     1     2   ar
    25    12    10   ar
    26    12     9   ar
    27    11     8   ar
    28    11    13   ar
    29    10    13   ar
    30     9     8   ar
    31     8     3    1
    32     5     3   ar
    33     5     2   ar
