@<TRIPOS>MOLECULE
mol_data/noopt/geoms/mol2/88-5-5-.out
 28 31 0 0 0
SMALL
GASTEIGER

@<TRIPOS>ATOM
      1 C          -0.0089   -0.0179   -0.0000 C.ar    1  LIG1        0.1605
      2 N           1.3522   -0.0179   -0.0000 N.ar    1  LIG1       -0.1338
      3 C           1.1968    2.3931   -0.0000 C.ar    1  LIG1        0.2434
      4 N          -0.8254    1.0712   -0.0000 N.ar    1  LIG1       -0.1338
      5 N           1.9401    1.1968   -0.0000 N.ar    1  LIG1       -0.1224
      6 N          -0.2061    2.2702   -0.0001 N.ar    1  LIG1       -0.1224
      7 H          -0.5904   -1.1806   -0.0000 H       1  LIG1        0.1085
      8 C           1.7783    3.5558    0.0000 C.ar    1  LIG1        0.2435
      9 N           0.9619    4.6448    0.0000 N.ar    1  LIG1       -0.1218
     10 C           2.9842    5.9667   -0.0000 C.ar    1  LIG1        0.2099
     11 N           3.1395    3.5558   -0.0000 N.ar    1  LIG1       -0.1218
     12 N           1.5811    5.8439    0.0000 N.ar    1  LIG1       -0.1246
     13 N           3.7274    4.7705    0.0001 N.ar    1  LIG1       -0.1246
     14 C           3.5657    7.1294   -0.0000 C.ar    1  LIG1        0.0604
     15 C           2.9244    8.3482    0.0001 C.ar    1  LIG1       -0.0432
     16 C           3.8588    9.4335    0.0008 C.ar    1  LIG1       -0.0457
     17 C           5.1594    8.9805    0.0004 C.ar    1  LIG1        0.0266
     18 S           5.2281    7.3097   -0.0001 S.2     1  LIG1       -0.0845
     19 H           1.6359    8.5203   -0.0001 H       1  LIG1        0.0630
     20 H           3.4972   10.6822    0.0018 H       1  LIG1        0.0629
     21 C           6.2228    9.7282    0.0003 C.ar    1  LIG1        0.0259
     22 C           6.2365   11.1053    0.0003 C.ar    1  LIG1       -0.0464
     23 C           7.5740   11.6175    0.0009 C.ar    1  LIG1       -0.0541
     24 C           8.5039   10.6017    0.0005 C.ar    1  LIG1       -0.0237
     25 S           7.7719    9.0983    0.0001 S.2     1  LIG1       -0.0961
     26 H           9.7948   10.7554    0.0002 H       1  LIG1        0.0693
     27 H           5.1838   11.8681    0.0001 H       1  LIG1        0.0629
     28 H           7.8480   12.8882    0.0017 H       1  LIG1        0.0623
@<TRIPOS>BOND
     1    19    15    1
     2     6     4   ar
     3     6     3   ar
     4    18    14   ar
     5    18    17   ar
     6    10    14    1
     7    10    12   ar
     8    10    13   ar
     9     1     7    1
    10     1     4   ar
    11     1     2   ar
    12    14    15   ar
    13    12     9   ar
    14    11     8   ar
    15    11    13   ar
    16     9     8   ar
    17     8     3    1
    18     5     3   ar
    19     5     2   ar
    20    27    22    1
    21    25    21   ar
    22    25    24   ar
    23    15    16   ar
    24    26    24    1
    25    21    22   ar
    26    21    17    1
    27    22    23   ar
    28    17    16   ar
    29    24    23   ar
    30    16    20    1
    31    23    28    1
