@<TRIPOS>MOLECULE
mol_data/noopt/geoms/mol2/88-5-12-.out
 28 31 0 0 0
SMALL
GASTEIGER

@<TRIPOS>ATOM
      1 C          -0.0089   -0.0179   -0.0000 C.ar    1  LIG1        0.1605
      2 N           1.3522   -0.0179   -0.0000 N.ar    1  LIG1       -0.1338
      3 C           1.1968    2.3931   -0.0000 C.ar    1  LIG1        0.2434
      4 N          -0.8254    1.0712   -0.0000 N.ar    1  LIG1       -0.1338
      5 N           1.9401    1.1968   -0.0000 N.ar    1  LIG1       -0.1224
      6 N          -0.2061    2.2702   -0.0001 N.ar    1  LIG1       -0.1224
      7 H          -0.5904   -1.1806   -0.0000 H       1  LIG1        0.1085
      8 C           1.7783    3.5558    0.0000 C.ar    1  LIG1        0.2435
      9 N           0.9619    4.6448    0.0000 N.ar    1  LIG1       -0.1218
     10 C           2.9842    5.9667   -0.0000 C.ar    1  LIG1        0.2099
     11 N           3.1395    3.5558   -0.0000 N.ar    1  LIG1       -0.1218
     12 N           1.5811    5.8439    0.0000 N.ar    1  LIG1       -0.1246
     13 N           3.7274    4.7705    0.0001 N.ar    1  LIG1       -0.1246
     14 C           3.5657    7.1294   -0.0000 C.ar    1  LIG1        0.0605
     15 C           2.9244    8.3482    0.0001 C.ar    1  LIG1       -0.0431
     16 C           3.8588    9.4335    0.0008 C.ar    1  LIG1       -0.0433
     17 C           5.1594    8.9805    0.0004 C.ar    1  LIG1        0.0551
     18 S           5.2281    7.3097   -0.0001 S.2     1  LIG1       -0.0820
     19 H           1.6359    8.5203   -0.0001 H       1  LIG1        0.0630
     20 H           3.4972   10.6822    0.0018 H       1  LIG1        0.0630
     21 C           6.2228    9.7282    0.0003 C.ar    1  LIG1        0.1413
     22 C           6.4709   11.0852    0.0002 C.ar    1  LIG1       -0.0154
     23 C           7.9102   11.2438    0.0001 C.ar    1  LIG1       -0.0233
     24 C           8.4465    9.9725    0.0002 C.ar    1  LIG1        0.0926
     25 O           7.4260    9.0210    0.0004 O.2     1  LIG1       -0.4624
     26 H           9.6470    9.4737    0.0001 H       1  LIG1        0.1029
     27 H           5.6026   12.0527    0.0001 H       1  LIG1        0.0655
     28 H           8.5476   12.3768   -0.0001 H       1  LIG1        0.0649
@<TRIPOS>BOND
     1    19    15    1
     2     6     3   ar
     3     6     4   ar
     4    18    14   ar
     5    18    17   ar
     6    28    23    1
     7     1     2   ar
     8     1     4   ar
     9     1     7    1
    10    14    10    1
    11    14    15   ar
    12    12    10   ar
    13    12     9   ar
    14    11     8   ar
    15    11    13   ar
    16    10    13   ar
    17     3     5   ar
    18     3     8    1
    19     2     5   ar
    20     9     8   ar
    21    23    24   ar
    22    23    22   ar
    23    26    24    1
    24    15    16   ar
    25    27    22    1
    26    24    25   ar
    27    22    21   ar
    28    21    25   ar
    29    21    17    1
    30    17    16   ar
    31    16    20    1
