@<TRIPOS>MOLECULE
mol_data/noopt/geoms/mol2/88-8.out
 20 22 0 0 0
SMALL
GASTEIGER

@<TRIPOS>ATOM
      1 C          -0.0089   -0.0179   -0.0000 C.ar    1  LIG1        0.1605
      2 N           1.3522   -0.0179   -0.0000 N.ar    1  LIG1       -0.1338
      3 C           1.1968    2.3931   -0.0000 C.ar    1  LIG1        0.2434
      4 N          -0.8254    1.0712   -0.0000 N.ar    1  LIG1       -0.1338
      5 N           1.9401    1.1968   -0.0000 N.ar    1  LIG1       -0.1224
      6 N          -0.2061    2.2702   -0.0001 N.ar    1  LIG1       -0.1224
      7 H          -0.5904   -1.1806   -0.0000 H       1  LIG1        0.1085
      8 C           1.7783    3.5558    0.0000 C.ar    1  LIG1        0.2435
      9 N           0.9619    4.6448    0.0000 N.ar    1  LIG1       -0.1217
     10 C           2.9842    5.9667   -0.0000 C.ar    1  LIG1        0.2435
     11 N           3.1395    3.5558   -0.0000 N.ar    1  LIG1       -0.1217
     12 N           1.5811    5.8439    0.0000 N.ar    1  LIG1       -0.1217
     13 N           3.7274    4.7705    0.0001 N.ar    1  LIG1       -0.1217
     14 C           3.5657    7.1294   -0.0000 C.ar    1  LIG1        0.2434
     15 N           4.9268    7.1294   -0.0000 N.ar    1  LIG1       -0.1224
     16 C           4.7714    9.5404   -0.0000 C.ar    1  LIG1        0.1605
     17 N           2.7492    8.2185   -0.0000 N.ar    1  LIG1       -0.1224
     18 N           5.5147    8.3441   -0.0000 N.ar    1  LIG1       -0.1338
     19 N           3.3685    9.4175   -0.0001 N.ar    1  LIG1       -0.1338
     20 H           5.3529   10.7031   -0.0000 H       1  LIG1        0.1085
@<TRIPOS>BOND
     1    19    17   ar
     2    19    16   ar
     3     6     4   ar
     4     6     3   ar
     5    11     8   ar
     6    11    13   ar
     7    20    16    1
     8    18    16   ar
     9    18    15   ar
    10    17    14   ar
    11    15    14   ar
    12    14    10    1
    13    12    10   ar
    14    12     9   ar
    15     1     7    1
    16     1     4   ar
    17     1     2   ar
    18    10    13   ar
    19     9     8   ar
    20     8     3    1
    21     5     3   ar
    22     5     2   ar
