@<TRIPOS>MOLECULE
mol_data/noopt/geoms/mol2/88-84-.out
 30 33 0 0 0
SMALL
GASTEIGER

@<TRIPOS>ATOM
      1 C          -0.0089   -0.0179   -0.0000 C.ar    1  LIG1        0.1605
      2 N           1.3522   -0.0179   -0.0000 N.ar    1  LIG1       -0.1338
      3 C           1.1968    2.3931   -0.0000 C.ar    1  LIG1        0.2434
      4 N          -0.8254    1.0712   -0.0000 N.ar    1  LIG1       -0.1338
      5 N           1.9401    1.1968   -0.0000 N.ar    1  LIG1       -0.1224
      6 N          -0.2061    2.2702   -0.0001 N.ar    1  LIG1       -0.1224
      7 H          -0.5904   -1.1806   -0.0000 H       1  LIG1        0.1085
      8 C           1.7783    3.5558    0.0000 C.ar    1  LIG1        0.2435
      9 N           0.9619    4.6448    0.0000 N.ar    1  LIG1       -0.1217
     10 C           2.9842    5.9667   -0.0000 C.ar    1  LIG1        0.2435
     11 N           3.1395    3.5558   -0.0000 N.ar    1  LIG1       -0.1217
     12 N           1.5811    5.8439    0.0000 N.ar    1  LIG1       -0.1217
     13 N           3.7274    4.7705    0.0001 N.ar    1  LIG1       -0.1217
     14 C           3.5657    7.1294   -0.0000 C.ar    1  LIG1        0.2435
     15 N           4.9268    7.1294   -0.0000 N.ar    1  LIG1       -0.1218
     16 C           4.7714    9.5404   -0.0000 C.ar    1  LIG1        0.2034
     17 N           2.7492    8.2185   -0.0000 N.ar    1  LIG1       -0.1218
     18 N           5.5147    8.3441   -0.0000 N.ar    1  LIG1       -0.1251
     19 N           3.3685    9.4175   -0.0001 N.ar    1  LIG1       -0.1251
     20 C           4.5737   11.8781   -0.0007 C.ar    1  LIG1       -0.0509
     21 C           5.2512   13.1128   -0.0023 C.ar    1  LIG1       -0.0611
     22 C           5.3529   10.7031   -0.0000 C.ar    1  LIG1        0.0226
     23 C           6.6428   13.1770   -0.0024 C.ar    1  LIG1       -0.0617
     24 H           4.6693   14.0318   -0.0031 H       1  LIG1        0.0618
     25 C           6.7421   10.7666   -0.0001 C.ar    1  LIG1       -0.0509
     26 C           7.3967   12.0028   -0.0012 C.ar    1  LIG1       -0.0611
     27 H           7.3207    9.8463    0.0004 H       1  LIG1        0.0625
     28 H           7.2355   14.3340   -0.0037 H       1  LIG1        0.0618
     29 H           3.2737   11.8822   -0.0004 H       1  LIG1        0.0625
     30 H           8.6956   12.0560   -0.0015 H       1  LIG1        0.0618
@<TRIPOS>BOND
     1    28    23    1
     2    24    21    1
     3    23    21   ar
     4    23    26   ar
     5    21    20   ar
     6    30    26    1
     7    26    25   ar
     8    20    29    1
     9    20    22   ar
    10    25    22   ar
    11    25    27    1
    12     6     4   ar
    13     6     3   ar
    14    19    16   ar
    15    19    17   ar
    16    16    22    1
    17    16    18   ar
    18    18    15   ar
    19    17    14   ar
    20     1     7    1
    21     1     4   ar
    22     1     2   ar
    23    15    14   ar
    24    14    10    1
    25    12    10   ar
    26    12     9   ar
    27    11     8   ar
    28    11    13   ar
    29    10    13   ar
    30     9     8   ar
    31     8     3    1
    32     5     3   ar
    33     5     2   ar
