@<TRIPOS>MOLECULE
mol_data/noopt/geoms/mol2/88.out
 14 15 0 0 0
SMALL
GASTEIGER

@<TRIPOS>ATOM
      1 C          -0.0089   -0.0179   -0.0000 C.ar    1  LIG1        0.1605
      2 N           1.3522   -0.0179   -0.0000 N.ar    1  LIG1       -0.1338
      3 C           1.1968    2.3931   -0.0000 C.ar    1  LIG1        0.2434
      4 N          -0.8254    1.0712   -0.0000 N.ar    1  LIG1       -0.1338
      5 N           1.9401    1.1968   -0.0000 N.ar    1  LIG1       -0.1224
      6 N          -0.2061    2.2702   -0.0001 N.ar    1  LIG1       -0.1224
      7 H          -0.5904   -1.1806   -0.0000 H       1  LIG1        0.1085
      8 C           1.7783    3.5558    0.0000 C.ar    1  LIG1        0.2434
      9 N           3.1394    3.5558    0.0000 N.ar    1  LIG1       -0.1224
     10 C           2.9840    5.9668    0.0000 C.ar    1  LIG1        0.1605
     11 N           0.9618    4.6449    0.0000 N.ar    1  LIG1       -0.1224
     12 N           3.7273    4.7705    0.0000 N.ar    1  LIG1       -0.1338
     13 N           1.5811    5.8439   -0.0001 N.ar    1  LIG1       -0.1338
     14 H           3.5655    7.1295    0.0000 H       1  LIG1        0.1085
@<TRIPOS>BOND
     1     6     3   ar
     2     6     4   ar
     3    13    10   ar
     4    13    11   ar
     5     1     2   ar
     6     1     4   ar
     7     1     7    1
     8     2     5   ar
     9     3     5   ar
    10     3     8    1
    11     8     9   ar
    12     8    11   ar
    13     9    12   ar
    14    10    12   ar
    15    10    14    1
