@<TRIPOS>MOLECULE
mol_data/noopt/geoms/mol2/8813-5-.out
 29 32 0 0 0
SMALL
GASTEIGER

@<TRIPOS>ATOM
      1 C          -0.0089   -0.0179   -0.0000 C.ar    1  LIG1        0.1605
      2 N           1.3522   -0.0179   -0.0000 N.ar    1  LIG1       -0.1338
      3 C           1.1968    2.3931   -0.0000 C.ar    1  LIG1        0.2434
      4 N          -0.8254    1.0712   -0.0000 N.ar    1  LIG1       -0.1338
      5 N           1.9401    1.1968   -0.0000 N.ar    1  LIG1       -0.1224
      6 N          -0.2061    2.2702   -0.0001 N.ar    1  LIG1       -0.1224
      7 H          -0.5904   -1.1806   -0.0000 H       1  LIG1        0.1085
      8 C           1.7783    3.5558    0.0000 C.ar    1  LIG1        0.2435
      9 N           3.1394    3.5558    0.0000 N.ar    1  LIG1       -0.1218
     10 C           2.9840    5.9668    0.0000 C.ar    1  LIG1        0.2194
     11 N           0.9618    4.6449    0.0000 N.ar    1  LIG1       -0.1218
     12 N           3.7273    4.7705    0.0000 N.ar    1  LIG1       -0.1236
     13 N           1.5811    5.8439   -0.0001 N.ar    1  LIG1       -0.1236
     14 C           3.5655    7.1295    0.0000 C.ar    1  LIG1        0.0880
     15 C           3.0348    8.3810    0.0005 C.ar    1  LIG1       -0.0326
     16 C           4.1260    9.3083   -0.0009 C.ar    1  LIG1       -0.0352
     17 C           5.2756    8.5826   -0.0004 C.ar    1  LIG1        0.0536
     18 N           4.9370    7.2483   -0.0003 N.ar    1  LIG1       -0.3512
     19 H           5.5807    6.4908    0.0001 H       1  LIG1        0.1660
     20 H           1.7691    8.6775    0.0006 H       1  LIG1        0.0640
     21 H           4.0377   10.6053   -0.0019 H       1  LIG1        0.0639
     22 C           6.5169    8.9688   -0.0011 C.ar    1  LIG1        0.0355
     23 C           6.9516   10.2756   -0.0014 C.ar    1  LIG1       -0.0455
     24 C           8.3816   10.3537   -0.0014 C.ar    1  LIG1       -0.0541
     25 C           8.9559    9.1020   -0.0019 C.ar    1  LIG1       -0.0237
     26 S           7.7987    7.8949   -0.0016 S.2     1  LIG1       -0.0952
     27 H          10.2318    8.8530   -0.0026 H       1  LIG1        0.0693
     28 H           6.1830   11.3241   -0.0014 H       1  LIG1        0.0629
     29 H           9.0315   11.4796   -0.0009 H       1  LIG1        0.0623
@<TRIPOS>BOND
     1    27    25    1
     2    21    16    1
     3    25    26   ar
     4    25    24   ar
     5    26    22   ar
     6    28    23    1
     7    24    23   ar
     8    24    29    1
     9    23    22   ar
    10    22    17    1
    11    16    17   ar
    12    16    15   ar
    13    17    18   ar
    14    18    14   ar
    15    18    19    1
    16     6     4   ar
    17     6     3   ar
    18    13    11   ar
    19    13    10   ar
    20     1     7    1
    21     1     4   ar
    22     1     2   ar
    23    14    10    1
    24    14    15   ar
    25    12    10   ar
    26    12     9   ar
    27    11     8   ar
    28     9     8   ar
    29     8     3    1
    30     5     3   ar
    31     5     2   ar
    32    15    20    1
