@<TRIPOS>MOLECULE
mol_data/opt/m06hf/geoms/mol2/11.out
 4 3 0 0 0
SMALL
GASTEIGER

@<TRIPOS>ATOM
      1 O           1.3160    2.5993   -0.0191 O.2     1  LIG1       -0.3047
      2 C           0.1153    2.6017   -0.0190 C.2     1  LIG1        0.1071
      3 H          -0.4545    3.5386    0.0137 H       1  LIG1        0.0988
      4 H          -0.4582    1.6670   -0.0517 H       1  LIG1        0.0988
@<TRIPOS>BOND
     1     4     2    1
     2     1     2    2
     3     2     3    1
