@<TRIPOS>MOLECULE
mol_data/opt/m06hf/geoms/mol2/111111-.out
 8 7 0 0 0
SMALL
GASTEIGER

@<TRIPOS>ATOM
      1 O           1.4653    2.7415    0.0148 O.2     1  LIG1       -0.2922
      2 C           0.2699    2.7443   -0.0179 C.2     1  LIG1        0.1927
      3 H          -0.3330    3.6583   -0.0214 H       1  LIG1        0.1117
      4 O           0.0983    0.3467   -0.0559 O.2     1  LIG1       -0.2811
      5 C          -0.4799    1.3936   -0.0573 C.2     1  LIG1        0.2566
      6 O          -2.5937    2.4714   -0.1017 O.2     1  LIG1       -0.2922
      7 C          -2.0082    1.4250   -0.0993 C.2     1  LIG1        0.1927
      8 H          -2.5018    0.4457   -0.1263 H       1  LIG1        0.1117
@<TRIPOS>BOND
     1     8     7    1
     2     6     7    2
     3     7     5    1
     4     5     4    2
     5     5     2    1
     6     3     2    1
     7     2     1    2
