@<TRIPOS>MOLECULE
mol_data/opt/m06hf/geoms/mol2/111111.out
 8 7 0 0 0
SMALL
GASTEIGER

@<TRIPOS>ATOM
      1 O           1.4770    2.7683    0.0119 O.2     1  LIG1       -0.2922
      2 C           0.2827    2.7600   -0.0187 C.2     1  LIG1        0.1927
      3 H          -0.3094    3.6863   -0.0197 H       1  LIG1        0.1117
      4 O           0.1152    0.3802   -0.0584 O.2     1  LIG1       -0.2811
      5 C          -0.4766    1.4157   -0.0583 C.2     1  LIG1        0.2566
      6 O          -2.6336    0.4194   -0.1285 O.2     1  LIG1       -0.2922
      7 C          -2.0202    1.4441   -0.0979 C.2     1  LIG1        0.1927
      8 H          -2.5176    2.4245   -0.0968 H       1  LIG1        0.1117
@<TRIPOS>BOND
     1     6     7    2
     2     7     8    1
     3     7     5    1
     4     4     5    2
     5     5     2    1
     6     3     2    1
     7     2     1    2
