@<TRIPOS>MOLECULE
mol_data/opt/m06hf/geoms/mol2/11111111.out
 10 9 0 0 0
SMALL
GASTEIGER

@<TRIPOS>ATOM
      1 O           1.5855    2.7296   -0.0488 O.2     1  LIG1       -0.2922
      2 C           0.4155    2.6946    0.1846 C.2     1  LIG1        0.1935
      3 H          -0.1185    3.5376    0.6467 H       1  LIG1        0.1117
      4 O           0.1723    0.4125   -0.4633 O.2     1  LIG1       -0.2803
      5 C          -0.3903    1.4138   -0.1436 C.2     1  LIG1        0.2673
      6 O          -2.5090    0.4278    0.3071 O.2     1  LIG1       -0.2803
      7 C          -1.9350    1.4227   -0.0124 C.2     1  LIG1        0.2673
      8 O          -3.8956    2.7610   -0.1070 O.2     1  LIG1       -0.2922
      9 C          -2.7260    2.7126   -0.3404 C.2     1  LIG1        0.1935
     10 H          -2.1824    3.5496   -0.8022 H       1  LIG1        0.1117
@<TRIPOS>BOND
     1    10     9    1
     2     4     5    2
     3     9     8    2
     4     9     7    1
     5     5     7    1
     6     5     2    1
     7     1     2    2
     8     7     6    2
     9     2     3    1
