@<TRIPOS>MOLECULE
mol_data/opt/m06hf/geoms/mol2/1111-1111.out
 10 9 0 0 0
SMALL
GASTEIGER

@<TRIPOS>ATOM
      1 O           1.2778    2.9308   -0.6027 O.2     1  LIG1       -0.2922
      2 C           0.1892    2.8984   -0.1128 C.2     1  LIG1        0.1935
      3 H          -0.3887    3.7876    0.1730 H       1  LIG1        0.1117
      4 O          -1.7473    1.5744    0.2473 O.2     1  LIG1       -0.2803
      5 C          -0.5556    1.5733    0.1015 C.2     1  LIG1        0.2673
      6 O           1.3609    0.1897    0.4456 O.2     1  LIG1       -0.2803
      7 C           0.2136    0.2451    0.1251 C.2     1  LIG1        0.2673
      8 O          -0.0603   -2.0877   -0.1779 O.2     1  LIG1       -0.2922
      9 C          -0.6031   -1.0247   -0.2210 C.2     1  LIG1        0.1935
     10 H          -1.6535   -0.8925   -0.5014 H       1  LIG1        0.1117
@<TRIPOS>BOND
     1     1     2    2
     2    10     9    1
     3     9     8    2
     4     9     7    1
     5     2     5    1
     6     2     3    1
     7     5     7    1
     8     5     4    2
     9     7     6    2
