@<TRIPOS>MOLECULE
mol_data/opt/m06hf/geoms/mol2/1111-11-11-.out
 10 9 0 0 0
SMALL
GASTEIGER

@<TRIPOS>ATOM
      1 O           1.2496    3.0555    0.0048 O.2     1  LIG1       -0.2922
      2 C           0.0575    2.9392   -0.0169 C.2     1  LIG1        0.1935
      3 H          -0.6383    3.7876   -0.0139 H       1  LIG1        0.1117
      4 O          -1.8365    1.5629   -0.0719 O.2     1  LIG1       -0.2803
      5 C          -0.6415    1.5738   -0.0519 C.2     1  LIG1        0.2673
      6 O          -0.5130   -0.7778   -0.0893 O.2     1  LIG1       -0.2803
      7 C           0.1378    0.2203   -0.0621 C.2     1  LIG1        0.2673
      8 O           2.1810   -0.9589   -0.0493 O.2     1  LIG1       -0.2922
      9 C           1.6904    0.1304   -0.0388 C.2     1  LIG1        0.1935
     10 H           2.2661    1.0590   -0.0139 H       1  LIG1        0.1117
@<TRIPOS>BOND
     1     6     7    2
     2     4     5    2
     3     7     5    1
     4     7     9    1
     5     5     2    1
     6     8     9    2
     7     9    10    1
     8     2     3    1
     9     2     1    2
