@<TRIPOS>MOLECULE
mol_data/opt/m06hf/geoms/mol2/11111111-.out
 10 9 0 0 0
SMALL
GASTEIGER

@<TRIPOS>ATOM
      1 O           1.5858    2.6844   -0.1269 O.2     1  LIG1       -0.2922
      2 C           0.4213    2.6993    0.1355 C.2     1  LIG1        0.1935
      3 H          -0.0840    3.5599    0.5845 H       1  LIG1        0.1117
      4 O           0.1128    0.4184   -0.5082 O.2     1  LIG1       -0.2803
      5 C          -0.4183    1.4286   -0.1612 C.2     1  LIG1        0.2673
      6 O          -2.5340    0.4257    0.3566 O.2     1  LIG1       -0.2803
      7 C          -1.9587    1.4201    0.0258 C.2     1  LIG1        0.2673
      8 O          -2.1819    3.6880   -0.6318 O.2     1  LIG1       -0.2922
      9 C          -2.7505    2.6920   -0.2806 C.2     1  LIG1        0.1935
     10 H          -3.8388    2.6099   -0.1718 H       1  LIG1        0.1117
@<TRIPOS>BOND
     1     8     9    2
     2     4     5    2
     3     9    10    1
     4     9     7    1
     5     5     7    1
     6     5     2    1
     7     1     2    2
     8     7     6    2
     9     2     3    1
