@<TRIPOS>MOLECULE
mol_data/opt/m06hf/geoms/mol2/1111-11-11.out
 10 9 0 0 0
SMALL
GASTEIGER

@<TRIPOS>ATOM
      1 O           0.9119    2.8623   -1.0825 O.2     1  LIG1       -0.2922
      2 C           0.0162    2.8749   -0.2872 C.2     1  LIG1        0.1935
      3 H          -0.4444    3.7838    0.1173 H       1  LIG1        0.1117
      4 O          -1.5519    1.4900    0.8621 O.2     1  LIG1       -0.2803
      5 C          -0.5651    1.5451    0.1910 C.2     1  LIG1        0.2673
      6 O          -0.3448   -0.5268   -1.0157 O.2     1  LIG1       -0.2803
      7 C           0.1732    0.2808   -0.3039 C.2     1  LIG1        0.2673
      8 O           2.0023    0.8592    1.0592 O.2     1  LIG1       -0.2922
      9 C           1.5939    0.0990    0.2284 C.2     1  LIG1        0.1935
     10 H           2.1620   -0.7483   -0.1732 H       1  LIG1        0.1117
@<TRIPOS>BOND
     1     1     2    2
     2     6     7    2
     3     7     5    1
     4     7     9    1
     5     2     3    1
     6     2     5    1
     7    10     9    1
     8     5     4    2
     9     9     8    2
