@<TRIPOS>MOLECULE
mol_data/opt/m06hf/geoms/mol2/111111-11-.out
 10 9 0 0 0
SMALL
GASTEIGER

@<TRIPOS>ATOM
      1 O           1.5452    2.8138    0.0058 O.2     1  LIG1       -0.2922
      2 C           0.3508    2.8216   -0.0221 C.2     1  LIG1        0.1935
      3 H          -0.2520    3.7349   -0.0304 H       1  LIG1        0.1117
      4 O           0.1844    0.4222   -0.0412 O.2     1  LIG1       -0.2803
      5 C          -0.3982    1.4677   -0.0481 C.2     1  LIG1        0.2673
      6 O          -2.5110    2.5450   -0.0904 O.2     1  LIG1       -0.2803
      7 C          -1.9283    1.4995   -0.0836 C.2     1  LIG1        0.2673
      8 O          -3.8717    0.1534   -0.1377 O.2     1  LIG1       -0.2922
      9 C          -2.6773    0.1457   -0.1099 C.2     1  LIG1        0.1935
     10 H          -2.0745   -0.7677   -0.1018 H       1  LIG1        0.1117
@<TRIPOS>BOND
     1     8     9    2
     2     9    10    1
     3     9     7    1
     4     6     7    2
     5     7     5    1
     6     5     4    2
     7     5     2    1
     8     3     2    1
     9     2     1    2
