@<TRIPOS>MOLECULE
mol_data/opt/m06hf/geoms/mol2/1111-.out
 6 5 0 0 0
SMALL
GASTEIGER

@<TRIPOS>ATOM
      1 O           1.4008    2.6850    0.0023 O.2     1  LIG1       -0.2930
      2 C           0.2024    2.6972   -0.0154 C.2     1  LIG1        0.1821
      3 H          -0.4029    3.6133   -0.0002 H       1  LIG1        0.1109
      4 O          -1.7741    1.3963   -0.0798 O.2     1  LIG1       -0.2930
      5 C          -0.5757    1.3841   -0.0617 C.2     1  LIG1        0.1821
      6 H           0.0296    0.4680   -0.0758 H       1  LIG1        0.1109
@<TRIPOS>BOND
     1     4     5    2
     2     6     5    1
     3     5     2    1
     4     2     3    1
     5     2     1    2
