@<TRIPOS>MOLECULE
mol_data/opt/m06hf/geoms/mol2/1111-11-.out
 8 7 0 0 0
SMALL
GASTEIGER

@<TRIPOS>ATOM
      1 O           1.3830    2.7869    0.0048 O.2     1  LIG1       -0.2922
      2 C           0.1841    2.8025   -0.0161 C.2     1  LIG1        0.1927
      3 H          -0.4173    3.7199   -0.0103 H       1  LIG1        0.1117
      4 O          -1.8010    1.5142   -0.0742 O.2     1  LIG1       -0.2811
      5 C          -0.6054    1.4937   -0.0534 C.2     1  LIG1        0.2566
      6 O          -0.4069   -0.8652   -0.0919 O.2     1  LIG1       -0.2922
      7 C           0.1917    0.1696   -0.0629 C.2     1  LIG1        0.1927
      8 H           1.2843    0.2360   -0.0423 H       1  LIG1        0.1117
@<TRIPOS>BOND
     1     6     7    2
     2     4     5    2
     3     7     5    1
     4     7     8    1
     5     5     2    1
     6     2     3    1
     7     2     1    2
