@<TRIPOS>MOLECULE
mol_data/opt/m06hf/geoms/mol2/1111-1111-.out
 10 9 0 0 0
SMALL
GASTEIGER

@<TRIPOS>ATOM
      1 O           0.7501    2.1313    1.2059 O.2     1  LIG1       -0.2922
      2 C          -0.0867    2.5225    0.4433 C.2     1  LIG1        0.1935
      3 H          -0.5813    3.4988    0.5089 H       1  LIG1        0.1117
      4 O          -1.2023    2.0218   -1.6067 O.2     1  LIG1       -0.2803
      5 C          -0.4902    1.6314   -0.7306 C.2     1  LIG1        0.2673
      6 O           0.8789   -0.1500   -1.5964 O.2     1  LIG1       -0.2803
      7 C           0.1346    0.2179   -0.7374 C.2     1  LIG1        0.2673
      8 O          -1.1763   -0.3315    1.1383 O.2     1  LIG1       -0.2922
      9 C          -0.3117   -0.7032    0.3972 C.2     1  LIG1        0.1935
     10 H           0.1804   -1.6812    0.4556 H       1  LIG1        0.1117
@<TRIPOS>BOND
     1     4     5    2
     2     6     7    2
     3     7     5    1
     4     7     9    1
     5     5     2    1
     6     9    10    1
     7     9     8    2
     8     2     3    1
     9     2     1    2
