@<TRIPOS>MOLECULE
mol_data/opt/m06hf/geoms/mol2/111111-11.out
 10 9 0 0 0
SMALL
GASTEIGER

@<TRIPOS>ATOM
      1 O           1.5114    2.8535    0.0867 O.2     1  LIG1       -0.2922
      2 C           0.3184    2.8016    0.1113 C.2     1  LIG1        0.1935
      3 H          -0.3190    3.6532    0.3720 H       1  LIG1        0.1117
      4 O           0.2411    0.4871   -0.5315 O.2     1  LIG1       -0.2803
      5 C          -0.3778    1.4610   -0.2310 C.2     1  LIG1        0.2673
      6 O          -2.4991    2.5096   -0.3969 O.2     1  LIG1       -0.2803
      7 C          -1.9128    1.4751   -0.2311 C.2     1  LIG1        0.2673
      8 O          -2.2001   -0.7819    0.4922 O.2     1  LIG1       -0.2922
      9 C          -2.7014    0.1760   -0.0151 C.2     1  LIG1        0.1935
     10 H          -3.7556    0.2372   -0.3173 H       1  LIG1        0.1117
@<TRIPOS>BOND
     1     4     5    2
     2     6     7    2
     3    10     9    1
     4     7     5    1
     5     7     9    1
     6     5     2    1
     7     9     8    2
     8     1     2    2
     9     2     3    1
