@<TRIPOS>MOLECULE
mol_data/opt/m06hf/geoms/mol2/1111.out
 6 5 0 0 0
SMALL
GASTEIGER

@<TRIPOS>ATOM
      1 O           1.3727    2.7311    0.0010 O.2     1  LIG1       -0.2930
      2 C           0.1771    2.7204   -0.0166 C.2     1  LIG1        0.1821
      3 H          -0.4226    3.6425   -0.0022 H       1  LIG1        0.1109
      4 O          -0.0160    0.3439   -0.0784 O.2     1  LIG1       -0.2930
      5 C          -0.5977    1.3885   -0.0608 C.2     1  LIG1        0.1821
      6 H          -1.6957    1.4540   -0.0749 H       1  LIG1        0.1109
@<TRIPOS>BOND
     1     4     5    2
     2     6     5    1
     3     5     2    1
     4     2     3    1
     5     2     1    2
