@<TRIPOS>MOLECULE
mol_data/opt/m06hf/geoms/mol2/1212-5-.out
 23 25 0 0 0
SMALL
GASTEIGER

@<TRIPOS>ATOM
      1 C           0.1860    1.7708   -0.0002 C.ar    1  LIG1        0.0927
      2 C           1.5410    1.7697   -0.0001 C.ar    1  LIG1       -0.0232
      3 C           1.9384    3.1516    0.0001 C.ar    1  LIG1       -0.0128
      4 C           0.7811    3.8637   -0.0000 C.ar    1  LIG1        0.1697
      5 O          -0.2845    3.0368   -0.0002 O.2     1  LIG1       -0.4598
      6 H          -0.5533    0.9903   -0.0003 H       1  LIG1        0.1029
      7 H           2.1826    0.9056   -0.0001 H       1  LIG1        0.0649
      8 H           2.9339    3.5602    0.0003 H       1  LIG1        0.0656
      9 C           0.5078    5.2895    0.0000 C.ar    1  LIG1        0.1706
     10 C          -0.6450    6.0103   -0.0001 C.ar    1  LIG1       -0.0121
     11 C          -0.2450    7.3875    0.0000 C.ar    1  LIG1       -0.0146
     12 C           1.1172    7.3874    0.0001 C.ar    1  LIG1        0.1424
     13 O           1.5761    6.1140    0.0001 O.2     1  LIG1       -0.4512
     14 H          -1.6429    5.6077   -0.0002 H       1  LIG1        0.0657
     15 H          -0.8847    8.2531   -0.0000 H       1  LIG1        0.0656
     16 C           2.1240    8.4417    0.0002 C.ar    1  LIG1        0.0544
     17 C           1.9297    9.7940    0.0003 C.ar    1  LIG1       -0.0440
     18 C           3.1615   10.5228    0.0004 C.ar    1  LIG1       -0.0540
     19 C           4.2483    9.7049    0.0004 C.ar    1  LIG1       -0.0236
     20 S           3.8051    8.0425    0.0001 S.2     1  LIG1       -0.0936
     21 H           5.2897    9.9833    0.0005 H       1  LIG1        0.0693
     22 H           0.9524   10.2540    0.0003 H       1  LIG1        0.0630
     23 H           3.2222   11.6008    0.0005 H       1  LIG1        0.0623
@<TRIPOS>BOND
     1     6     1    1
     2     5     1   ar
     3     5     4   ar
     4     1     2   ar
     5    14    10    1
     6     7     2    1
     7     2     3   ar
     8    10     9   ar
     9    10    11   ar
    10     4     9    1
    11     4     3   ar
    12    15    11    1
    13     9    13   ar
    14    11    12   ar
    15     3     8    1
    16    13    12   ar
    17    12    16    1
    18    20    16   ar
    19    20    19   ar
    20    16    17   ar
    21    17    22    1
    22    17    18   ar
    23    18    19   ar
    24    18    23    1
    25    19    21    1
