@<TRIPOS>MOLECULE
mol_data/opt/m06hf/geoms/mol2/1212-4.out
 26 28 0 0 0
SMALL
GASTEIGER

@<TRIPOS>ATOM
      1 C           0.1526    1.7446   -0.0001 C.ar    1  LIG1        0.0927
      2 C           1.5072    1.7257   -0.0005 C.ar    1  LIG1       -0.0232
      3 C           1.9220    3.1027    0.0003 C.ar    1  LIG1       -0.0128
      4 C           0.7744    3.8303   -0.0001 C.ar    1  LIG1        0.1697
      5 O          -0.3014    3.0165   -0.0003 O.2     1  LIG1       -0.4598
      6 H          -0.5967    0.9735   -0.0002 H       1  LIG1        0.1029
      7 H           2.1376    0.8532   -0.0008 H       1  LIG1        0.0649
      8 H           2.9228    3.4978    0.0006 H       1  LIG1        0.0656
      9 C           0.5162    5.2595   -0.0000 C.ar    1  LIG1        0.1705
     10 C          -0.6311    5.9881   -0.0003 C.ar    1  LIG1       -0.0122
     11 C          -0.2173    7.3608   -0.0000 C.ar    1  LIG1       -0.0151
     12 C           1.1455    7.3543    0.0004 C.ar    1  LIG1        0.1358
     13 O           1.5902    6.0744    0.0004 O.2     1  LIG1       -0.4517
     14 H          -1.6319    5.5930   -0.0007 H       1  LIG1        0.0657
     15 H          -0.8569    8.2267   -0.0001 H       1  LIG1        0.0656
     16 C           3.5225    8.0784    0.0016 C.ar    1  LIG1       -0.0511
     17 C           4.4879    9.0793    0.0020 C.ar    1  LIG1       -0.0611
     18 C           2.1661    8.4134    0.0009 C.ar    1  LIG1        0.0173
     19 C           4.1104   10.4194    0.0018 C.ar    1  LIG1       -0.0617
     20 H           5.5365    8.8117    0.0026 H       1  LIG1        0.0618
     21 C           1.7891    9.7599    0.0006 C.ar    1  LIG1       -0.0511
     22 C           2.7577   10.7552    0.0011 C.ar    1  LIG1       -0.0611
     23 H           0.7403   10.0270    0.0000 H       1  LIG1        0.0625
     24 H           4.8627   11.1968    0.0021 H       1  LIG1        0.0618
     25 H           3.8106    7.0358    0.0018 H       1  LIG1        0.0625
     26 H           2.4573   11.7949    0.0009 H       1  LIG1        0.0618
@<TRIPOS>BOND
     1     7     2    1
     2    14    10    1
     3     2     1   ar
     4     2     3   ar
     5    10    11   ar
     6    10     9   ar
     7     5     1   ar
     8     5     4   ar
     9     6     1    1
    10    15    11    1
    11     4     9    1
    12     4     3   ar
    13    11    12   ar
    14     9    13   ar
    15    23    21    1
    16     3     8    1
    17    12    13   ar
    18    12    18    1
    19    21    18   ar
    20    21    22   ar
    21    26    22    1
    22    18    16   ar
    23    22    19   ar
    24    16    25    1
    25    16    17   ar
    26    19    17   ar
    27    19    24    1
    28    17    20    1
