@<TRIPOS>MOLECULE
mol_data/opt/m06hf/geoms/mol2/1212-55-.out
 30 33 0 0 0
SMALL
GASTEIGER

@<TRIPOS>ATOM
      1 C           0.1333    1.6781   -0.0004 C.ar    1  LIG1        0.0927
      2 C           1.4882    1.6593   -0.0004 C.ar    1  LIG1       -0.0232
      3 C           1.9032    3.0362   -0.0007 C.ar    1  LIG1       -0.0128
      4 C           0.7554    3.7637   -0.0002 C.ar    1  LIG1        0.1697
      5 O          -0.3201    2.9500   -0.0000 O.2     1  LIG1       -0.4598
      6 H          -0.6160    0.9070   -0.0003 H       1  LIG1        0.1029
      7 H           2.1186    0.7871   -0.0004 H       1  LIG1        0.0649
      8 H           2.9041    3.4310   -0.0009 H       1  LIG1        0.0656
      9 C           0.5000    5.1931    0.0000 C.ar    1  LIG1        0.1706
     10 C          -0.6447    5.9268    0.0004 C.ar    1  LIG1       -0.0121
     11 C          -0.2275    7.2988    0.0004 C.ar    1  LIG1       -0.0146
     12 C           1.1347    7.2816    0.0001 C.ar    1  LIG1        0.1424
     13 O           1.5791    6.0033   -0.0001 O.2     1  LIG1       -0.4512
     14 H          -1.6472    5.5358    0.0006 H       1  LIG1        0.0657
     15 H          -0.8567    8.1730    0.0006 H       1  LIG1        0.0656
     16 C           2.1601    8.3152    0.0001 C.ar    1  LIG1        0.0550
     17 C           3.5112    8.1272   -0.0004 C.ar    1  LIG1       -0.0434
     18 C           4.2351    9.3585   -0.0003 C.ar    1  LIG1       -0.0457
     19 C           3.4229   10.4566    0.0002 C.ar    1  LIG1        0.0266
     20 S           1.7501    9.9964    0.0005 S.2     1  LIG1       -0.0847
     21 H           3.9645    7.1475   -0.0007 H       1  LIG1        0.0630
     22 H           5.3140    9.4190   -0.0007 H       1  LIG1        0.0629
     23 C           3.8067   11.8699    0.0003 C.ar    1  LIG1        0.0259
     24 C           2.9967   12.9698   -0.0001 C.ar    1  LIG1       -0.0464
     25 C           3.7296   14.2005    0.0001 C.ar    1  LIG1       -0.0541
     26 C           5.0739   14.0041    0.0007 C.ar    1  LIG1       -0.0237
     27 S           5.4767   12.3291    0.0011 S.2     1  LIG1       -0.0961
     28 H           5.8563   14.7449    0.0009 H       1  LIG1        0.0693
     29 H           1.9174   12.9133   -0.0006 H       1  LIG1        0.0629
     30 H           3.2675   15.1761   -0.0001 H       1  LIG1        0.0623
@<TRIPOS>BOND
     1     8     3    1
     2    21    17    1
     3    22    18    1
     4     3     2   ar
     5     3     4   ar
     6    29    24    1
     7     7     2    1
     8    17    18   ar
     9    17    16   ar
    10     2     1   ar
    11     1     6    1
    12     1     5   ar
    13    18    19   ar
    14     4     5   ar
    15     4     9    1
    16    30    25    1
    17    13     9   ar
    18    13    12   ar
    19    24    25   ar
    20    24    23   ar
    21     9    10   ar
    22    16    12    1
    23    16    20   ar
    24    25    26   ar
    25    12    11   ar
    26    19    23    1
    27    19    20   ar
    28    23    27   ar
    29    10    11   ar
    30    10    14    1
    31    11    15    1
    32    26    28    1
    33    26    27   ar
