@<TRIPOS>MOLECULE
mol_data/opt/m06hf/geoms/mol2/1212-.out
 16 17 0 0 0
SMALL
GASTEIGER

@<TRIPOS>ATOM
      1 C           0.2061    1.8208   -0.0001 C.ar    1  LIG1        0.0927
      2 C           1.5608    1.8114    0.0001 C.ar    1  LIG1       -0.0232
      3 C           1.9662    3.1916   -0.0001 C.ar    1  LIG1       -0.0128
      4 C           0.8139    3.9104   -0.0000 C.ar    1  LIG1        0.1696
      5 O          -0.2565    3.0895   -0.0001 O.2     1  LIG1       -0.4598
      6 H          -0.5366    1.0432   -0.0002 H       1  LIG1        0.1029
      7 H           2.1950    0.9420    0.0002 H       1  LIG1        0.0649
      8 H           2.9637    3.5959   -0.0000 H       1  LIG1        0.0656
      9 C           0.5443    5.3395   -0.0000 C.ar    1  LIG1        0.1696
     10 C          -0.6080    6.0583   -0.0000 C.ar    1  LIG1       -0.0128
     11 C          -0.2025    7.4385   -0.0001 C.ar    1  LIG1       -0.0232
     12 C           1.1521    7.4291   -0.0000 C.ar    1  LIG1        0.0927
     13 O           1.6147    6.1605   -0.0000 O.2     1  LIG1       -0.4598
     14 H           1.8948    8.2067   -0.0000 H       1  LIG1        0.1029
     15 H          -1.6055    5.6540   -0.0000 H       1  LIG1        0.0656
     16 H          -0.8368    8.3079   -0.0001 H       1  LIG1        0.0649
@<TRIPOS>BOND
     1     6     1    1
     2    16    11    1
     3     1     5   ar
     4     1     2   ar
     5    11    10   ar
     6    11    12   ar
     7     5     4   ar
     8     3     4   ar
     9     3     8    1
    10     3     2   ar
    11     9     4    1
    12     9    10   ar
    13     9    13   ar
    14    10    15    1
    15    12    13   ar
    16    12    14    1
    17     2     7    1
