@<TRIPOS>MOLECULE
mol_data/opt/m06hf/geoms/mol2/1212-58-.out
 29 32 0 0 0
SMALL
GASTEIGER

@<TRIPOS>ATOM
      1 C           0.1129    1.7172    0.0000 C.ar    1  LIG1        0.0927
      2 C           1.4674    1.6809   -0.0004 C.ar    1  LIG1       -0.0232
      3 C           1.8996    3.0520   -0.0005 C.ar    1  LIG1       -0.0128
      4 C           0.7611    3.7935   -0.0002 C.ar    1  LIG1        0.1697
      5 O          -0.3252    2.9943    0.0001 O.2     1  LIG1       -0.4598
      6 H          -0.6458    0.9555    0.0003 H       1  LIG1        0.1029
      7 H           2.0867    0.8005   -0.0005 H       1  LIG1        0.0649
      8 H           2.9054    3.4344   -0.0008 H       1  LIG1        0.0656
      9 C           0.5212    5.2253   -0.0001 C.ar    1  LIG1        0.1706
     10 C          -0.6187    5.9676    0.0001 C.ar    1  LIG1       -0.0121
     11 C          -0.1915    7.3352    0.0001 C.ar    1  LIG1       -0.0146
     12 C           1.1706    7.3071   -0.0001 C.ar    1  LIG1        0.1424
     13 O           1.6066    6.0257   -0.0002 O.2     1  LIG1       -0.4512
     14 H          -1.6238    5.5838    0.0002 H       1  LIG1        0.0657
     15 H          -0.8142    8.2145    0.0002 H       1  LIG1        0.0656
     16 C           2.1990    8.3375   -0.0001 C.ar    1  LIG1        0.0551
     17 C           3.5542    8.1366   -0.0002 C.ar    1  LIG1       -0.0433
     18 C           4.2799    9.3617   -0.0002 C.ar    1  LIG1       -0.0431
     19 C           3.4551   10.4508   -0.0001 C.ar    1  LIG1        0.0605
     20 S           1.7840   10.0125   -0.0000 S.2     1  LIG1       -0.0820
     21 H           4.0007    7.1541   -0.0002 H       1  LIG1        0.0630
     22 H           5.3561    9.4491   -0.0002 H       1  LIG1        0.0630
     23 C           3.8579   11.8554   -0.0001 C.ar    1  LIG1        0.2099
     24 N           2.8956   12.7811   -0.0001 N.ar    1  LIG1       -0.1253
     25 C           4.5540   14.2983   -0.0001 C.ar    1  LIG1        0.1605
     26 N           5.1678   12.1321   -0.0001 N.ar    1  LIG1       -0.1253
     27 N           3.2517   14.0305   -0.0001 N.ar    1  LIG1       -0.1339
     28 N           5.5196   13.3806   -0.0001 N.ar    1  LIG1       -0.1339
     29 H           4.8508   15.3363   -0.0001 H       1  LIG1        0.1085
@<TRIPOS>BOND
     1     8     3    1
     2     3     2   ar
     3     3     4   ar
     4     7     2    1
     5     2     1   ar
     6    13     9   ar
     7    13    12   ar
     8    21    17    1
     9     4     9    1
    10     4     5   ar
    11    22    18    1
    12    17    18   ar
    13    17    16   ar
    14    18    19   ar
    15    16    12    1
    16    16    20   ar
    17    19    23    1
    18    19    20   ar
    19    25    27   ar
    20    25    28   ar
    21    25    29    1
    22     9    10   ar
    23    24    23   ar
    24    24    27   ar
    25    12    11   ar
    26    26    23   ar
    27    26    28   ar
    28     1     5   ar
    29     1     6    1
    30    11    10   ar
    31    11    15    1
    32    10    14    1
