@<TRIPOS>MOLECULE
mol_data/opt/m06hf/geoms/mol2/1212-5.out
 23 25 0 0 0
SMALL
GASTEIGER

@<TRIPOS>ATOM
      1 C           0.1343    1.7565    0.0003 C.ar    1  LIG1        0.0927
      2 C           1.4883    1.7218   -0.0001 C.ar    1  LIG1       -0.0232
      3 C           1.9195    3.0936   -0.0004 C.ar    1  LIG1       -0.0128
      4 C           0.7806    3.8340   -0.0001 C.ar    1  LIG1        0.1697
      5 O          -0.3052    3.0334    0.0003 O.2     1  LIG1       -0.4598
      6 H          -0.6228    0.9932    0.0007 H       1  LIG1        0.1029
      7 H           2.1075    0.8415   -0.0003 H       1  LIG1        0.0649
      8 H           2.9247    3.4776   -0.0007 H       1  LIG1        0.0656
      9 C           0.5380    5.2658   -0.0001 C.ar    1  LIG1        0.1706
     10 C          -0.6016    6.0060   -0.0000 C.ar    1  LIG1       -0.0121
     11 C          -0.1754    7.3751   -0.0001 C.ar    1  LIG1       -0.0146
     12 C           1.1858    7.3492   -0.0003 C.ar    1  LIG1        0.1424
     13 O           1.6235    6.0686   -0.0003 O.2     1  LIG1       -0.4512
     14 H          -1.6063    5.6205    0.0001 H       1  LIG1        0.0657
     15 H          -0.7976    8.2544   -0.0000 H       1  LIG1        0.0656
     16 C           2.2107    8.3856   -0.0004 C.ar    1  LIG1        0.0544
     17 C           3.5636    8.2058   -0.0005 C.ar    1  LIG1       -0.0440
     18 C           4.2792    9.4475   -0.0006 C.ar    1  LIG1       -0.0540
     19 C           3.4517   10.5252   -0.0006 C.ar    1  LIG1       -0.0236
     20 S           1.7910   10.0615   -0.0003 S.2     1  LIG1       -0.0936
     21 H           3.7163   11.5699   -0.0006 H       1  LIG1        0.0693
     22 H           4.0225    7.2287   -0.0005 H       1  LIG1        0.0630
     23 H           5.3560    9.5226   -0.0007 H       1  LIG1        0.0623
@<TRIPOS>BOND
     1     8     3    1
     2    23    18    1
     3    21    19    1
     4    18    19   ar
     5    18    17   ar
     6    19    20   ar
     7    22    17    1
     8    17    16   ar
     9    16    20   ar
    10    16    12    1
    11     3     2   ar
    12     3     4   ar
    13    13    12   ar
    14    13     9   ar
    15    12    11   ar
    16     7     2    1
    17     2     1   ar
    18     9     4    1
    19     9    10   ar
    20     4     5   ar
    21    11    10   ar
    22    11    15    1
    23    10    14    1
    24     5     1   ar
    25     1     6    1
