@<TRIPOS>MOLECULE
mol_data/opt/m06hf/geoms/mol2/121254-.out
 33 36 0 0 0
SMALL
GASTEIGER

@<TRIPOS>ATOM
      1 C           0.5588    1.6980    0.0088 C.ar    1  LIG1        0.0927
      2 C           1.8686    1.8054    0.3412 C.ar    1  LIG1       -0.0232
      3 C           2.1425    3.2140    0.4073 C.ar    1  LIG1       -0.0128
      4 C           0.9702    3.8324    0.1003 C.ar    1  LIG1        0.1697
      5 O           0.0083    2.9191   -0.1401 O.2     1  LIG1       -0.4598
      6 H          -0.0954    0.8592   -0.1497 H       1  LIG1        0.1029
      7 H           2.5535    0.9958    0.5248 H       1  LIG1        0.0649
      8 H           3.0717    3.6949    0.6603 H       1  LIG1        0.0656
      9 C           0.6105    5.2381   -0.0248 C.ar    1  LIG1        0.1706
     10 C           1.3603    6.3688   -0.1371 C.ar    1  LIG1       -0.0121
     11 C           0.4287    7.4543   -0.2077 C.ar    1  LIG1       -0.0146
     12 C          -0.8111    6.8916   -0.1446 C.ar    1  LIG1        0.1424
     13 O          -0.7019    5.5500   -0.0291 O.2     1  LIG1       -0.4512
     14 H           2.4346    6.4198   -0.1762 H       1  LIG1        0.0657
     15 H           0.6515    8.5036   -0.2967 H       1  LIG1        0.0656
     16 C          -2.1606    7.4390   -0.1786 C.ar    1  LIG1        0.0550
     17 C          -2.5348    8.7351   -0.3979 C.ar    1  LIG1       -0.0434
     18 C          -3.9513    8.9087   -0.3534 C.ar    1  LIG1       -0.0462
     19 C          -4.6239    7.7456   -0.1040 C.ar    1  LIG1        0.0200
     20 S          -3.5286    6.4196    0.0932 S.2     1  LIG1       -0.0852
     21 H          -1.8320    9.5299   -0.6001 H       1  LIG1        0.0630
     22 H          -4.4519    9.8487   -0.5352 H       1  LIG1        0.0629
     23 C          -6.7008    6.4040   -0.5091 C.ar    1  LIG1       -0.0535
     24 C          -8.0785    6.2417   -0.4078 C.ar    1  LIG1       -0.0612
     25 C          -6.0869    7.5504    0.0041 C.ar    1  LIG1       -0.0113
     26 C          -8.8573    7.2239    0.1985 C.ar    1  LIG1       -0.0617
     27 H          -8.5442    5.3524   -0.8118 H       1  LIG1        0.0618
     28 C          -6.8724    8.5278    0.6228 C.ar    1  LIG1       -0.0535
     29 C          -8.2508    8.3681    0.7116 C.ar    1  LIG1       -0.0612
     30 H          -6.3932    9.3991    1.0503 H       1  LIG1        0.0624
     31 H          -9.9295    7.0984    0.2728 H       1  LIG1        0.0618
     32 H          -6.0995    5.6514   -1.0040 H       1  LIG1        0.0624
     33 H          -8.8496    9.1307    1.1919 H       1  LIG1        0.0618
@<TRIPOS>BOND
     1    32    23    1
     2    27    24    1
     3    21    17    1
     4    22    18    1
     5    23    24   ar
     6    23    25   ar
     7    24    26   ar
     8    17    18   ar
     9    17    16   ar
    10    18    19   ar
    11    15    11    1
    12    11    12   ar
    13    11    10   ar
    14    16    12    1
    15    16    20   ar
    16    14    10    1
    17     6     1    1
    18    12    13   ar
    19     5     1   ar
    20     5     4   ar
    21    10     9   ar
    22    19    25    1
    23    19    20   ar
    24    13     9   ar
    25     9     4    1
    26    25    28   ar
    27     1     2   ar
    28     4     3   ar
    29    26    31    1
    30    26    29   ar
    31     2     3   ar
    32     2     7    1
    33     3     8    1
    34    28    29   ar
    35    28    30    1
    36    29    33    1
