@<TRIPOS>MOLECULE
mol_data/opt/m06hf/geoms/mol2/1212-8-13.out
 30 33 0 0 0
SMALL
GASTEIGER

@<TRIPOS>ATOM
      1 C           0.0014    1.7524   -0.0001 C.ar    1  LIG1        0.0927
      2 C           1.3544    1.6640   -0.0000 C.ar    1  LIG1       -0.0232
      3 C           1.8399    3.0166   -0.0000 C.ar    1  LIG1       -0.0128
      4 C           0.7301    3.8009   -0.0001 C.ar    1  LIG1        0.1697
      5 O          -0.3871    3.0448   -0.0002 O.2     1  LIG1       -0.4598
      6 H          -0.7858    1.0196   -0.0002 H       1  LIG1        0.1029
      7 H           1.9381    0.7602    0.0001 H       1  LIG1        0.0649
      8 H           2.8594    3.3619    0.0001 H       1  LIG1        0.0656
      9 C           0.5462    5.2409   -0.0001 C.ar    1  LIG1        0.1707
     10 C          -0.5685    6.0273   -0.0002 C.ar    1  LIG1       -0.0121
     11 C          -0.0898    7.3742   -0.0001 C.ar    1  LIG1       -0.0119
     12 C           1.2695    7.2850   -0.0001 C.ar    1  LIG1        0.1761
     13 O           1.6599    5.9943   -0.0000 O.2     1  LIG1       -0.4485
     14 H          -1.5873    5.6816   -0.0002 H       1  LIG1        0.0657
     15 H          -0.6591    8.2874   -0.0002 H       1  LIG1        0.0657
     16 C           2.2991    8.3206    0.0000 C.ar    1  LIG1        0.2381
     17 N           1.8757    9.5874   -0.0000 N.ar    1  LIG1       -0.1220
     18 C           4.0618   10.1650    0.0001 C.ar    1  LIG1        0.2194
     19 N           3.5866    7.9577    0.0001 N.ar    1  LIG1       -0.1220
     20 N           2.7705   10.5220    0.0000 N.ar    1  LIG1       -0.1236
     21 N           4.4812    8.8940    0.0001 N.ar    1  LIG1       -0.1236
     22 C           5.0494   11.2306    0.0002 C.ar    1  LIG1        0.0875
     23 C           6.4295   11.1940    0.0003 C.ar    1  LIG1       -0.0333
     24 C           6.8718   12.5385    0.0003 C.ar    1  LIG1       -0.0437
     25 C           5.7462   13.3404    0.0002 C.ar    1  LIG1        0.0023
     26 N           4.6545   12.5376    0.0001 N.ar    1  LIG1       -0.3582
     27 H           3.6842   12.8175    0.0001 H       1  LIG1        0.1654
     28 H           5.6512   14.4127    0.0002 H       1  LIG1        0.0807
     29 H           7.0250   10.2972    0.0003 H       1  LIG1        0.0640
     30 H           7.8911   12.8842    0.0004 H       1  LIG1        0.0633
@<TRIPOS>BOND
     1    14    10    1
     2     6     1    1
     3    15    11    1
     4    10    11   ar
     5    10     9   ar
     6     5     1   ar
     7     5     4   ar
     8    11    12   ar
     9     1     2   ar
    10     9     4    1
    11     9    13   ar
    12     4     3   ar
    13    12    13   ar
    14    12    16    1
    15    17    16   ar
    16    17    20   ar
    17     3     2   ar
    18     3     8    1
    19     2     7    1
    20    16    19   ar
    21    20    18   ar
    22    27    26    1
    23    19    21   ar
    24    18    21   ar
    25    18    22    1
    26    26    22   ar
    27    26    25   ar
    28    22    23   ar
    29    25    28    1
    30    25    24   ar
    31    23    29    1
    32    23    24   ar
    33    24    30    1
