@<TRIPOS>MOLECULE
mol_data/opt/m06hf/geoms/mol2/1212-13-8.out
 30 33 0 0 0
SMALL
GASTEIGER

@<TRIPOS>ATOM
      1 C           0.1667    1.7577    0.0004 C.ar    1  LIG1        0.0927
      2 C           1.5219    1.7495   -0.0003 C.ar    1  LIG1       -0.0232
      3 C           1.9263    3.1290   -0.0002 C.ar    1  LIG1       -0.0128
      4 C           0.7727    3.8474    0.0000 C.ar    1  LIG1        0.1697
      5 O          -0.2969    3.0260    0.0003 O.2     1  LIG1       -0.4598
      6 H          -0.5753    0.9794    0.0006 H       1  LIG1        0.1029
      7 H           2.1576    0.8812   -0.0007 H       1  LIG1        0.0649
      8 H           2.9253    3.5283   -0.0004 H       1  LIG1        0.0656
      9 C           0.5011    5.2736    0.0000 C.ar    1  LIG1        0.1706
     10 C          -0.6510    5.9947    0.0003 C.ar    1  LIG1       -0.0121
     11 C          -0.2529    7.3732    0.0002 C.ar    1  LIG1       -0.0137
     12 C           1.1073    7.3727   -0.0002 C.ar    1  LIG1        0.1519
     13 O           1.5716    6.0994   -0.0002 O.2     1  LIG1       -0.4503
     14 H          -1.6485    5.5918    0.0005 H       1  LIG1        0.0657
     15 H          -0.8894    8.2412    0.0004 H       1  LIG1        0.0656
     16 C           2.1171    8.4199   -0.0005 C.ar    1  LIG1        0.0826
     17 C           2.0048    9.8038   -0.0004 C.ar    1  LIG1       -0.0327
     18 C           3.3148   10.3263   -0.0009 C.ar    1  LIG1       -0.0325
     19 C           4.1785    9.2453   -0.0011 C.ar    1  LIG1        0.0880
     20 N           3.4348    8.1031   -0.0008 N.ar    1  LIG1       -0.3492
     21 H           3.8199    7.1683   -0.0009 H       1  LIG1        0.1661
     22 H           1.0819   10.3588   -0.0001 H       1  LIG1        0.0640
     23 H           3.6170   11.3594   -0.0011 H       1  LIG1        0.0640
     24 C           5.6294    9.1788   -0.0014 C.ar    1  LIG1        0.2193
     25 N           6.1873    7.9637   -0.0015 N.ar    1  LIG1       -0.1243
     26 C           8.1670    9.0266   -0.0021 C.ar    1  LIG1        0.1605
     27 N           6.3245   10.3253   -0.0017 N.ar    1  LIG1       -0.1243
     28 N           7.4846    7.8868   -0.0019 N.ar    1  LIG1       -0.1338
     29 N           7.6172   10.2422   -0.0021 N.ar    1  LIG1       -0.1338
     30 H           9.2447    8.9671   -0.0024 H       1  LIG1        0.1085
@<TRIPOS>BOND
     1    30    26    1
     2    26    29   ar
     3    26    28   ar
     4    29    27   ar
     5    28    25   ar
     6    27    24   ar
     7    25    24   ar
     8    24    19    1
     9    23    18    1
    10    19    18   ar
    11    19    20   ar
    12    18    17   ar
    13    21    20    1
    14    20    16   ar
    15     7     2    1
    16    16    17   ar
    17    16    12    1
    18    17    22    1
    19     8     3    1
    20     2     3   ar
    21     2     1   ar
    22    13    12   ar
    23    13     9   ar
    24     3     4   ar
    25    12    11   ar
    26     4     9    1
    27     4     5   ar
    28     9    10   ar
    29    11    10   ar
    30    11    15    1
    31    10    14    1
    32     5     1   ar
    33     1     6    1
