@<TRIPOS>MOLECULE
mol_data/opt/m06hf/geoms/mol2/1212-1212-.out
 30 33 0 0 0
SMALL
GASTEIGER

@<TRIPOS>ATOM
      1 C           0.1756    1.7302   -0.0001 C.ar    1  LIG1        0.0927
      2 C           1.5303    1.7133    0.0002 C.ar    1  LIG1       -0.0232
      3 C           1.9441    3.0903   -0.0001 C.ar    1  LIG1       -0.0128
      4 C           0.7950    3.8161   -0.0001 C.ar    1  LIG1        0.1697
      5 O          -0.2799    3.0013   -0.0001 O.2     1  LIG1       -0.4598
      6 H          -0.5706    0.9561   -0.0002 H       1  LIG1        0.1029
      7 H           2.1608    0.8412    0.0004 H       1  LIG1        0.0649
      8 H           2.9450    3.4860   -0.0001 H       1  LIG1        0.0656
      9 C           0.5322    5.2442   -0.0001 C.ar    1  LIG1        0.1707
     10 C          -0.6179    5.9705   -0.0001 C.ar    1  LIG1       -0.0121
     11 C          -0.2118    7.3461   -0.0001 C.ar    1  LIG1       -0.0121
     12 C           1.1484    7.3317   -0.0001 C.ar    1  LIG1        0.1707
     13 O           1.6080    6.0612   -0.0001 O.2     1  LIG1       -0.4486
     14 H          -1.6177    5.5721   -0.0001 H       1  LIG1        0.0657
     15 H          -0.8346    8.2235   -0.0002 H       1  LIG1        0.0657
     16 C           2.1420    8.3875   -0.0001 C.ar    1  LIG1        0.1707
     17 C           3.5022    8.3731   -0.0001 C.ar    1  LIG1       -0.0121
     18 C           3.9083    9.7488   -0.0001 C.ar    1  LIG1       -0.0121
     19 C           2.7583   10.4750   -0.0001 C.ar    1  LIG1        0.1707
     20 O           1.6825    9.6580   -0.0001 O.2     1  LIG1       -0.4486
     21 H           4.1250    7.4957   -0.0001 H       1  LIG1        0.0657
     22 H           4.9081   10.1472   -0.0001 H       1  LIG1        0.0657
     23 C           2.4954   11.9032   -0.0001 C.ar    1  LIG1        0.1697
     24 C           1.3463   12.6289   -0.0001 C.ar    1  LIG1       -0.0128
     25 C           1.7601   14.0060   -0.0002 C.ar    1  LIG1       -0.0232
     26 C           3.1149   13.9890   -0.0001 C.ar    1  LIG1        0.0927
     27 O           3.5703   12.7179   -0.0001 O.2     1  LIG1       -0.4598
     28 H           3.8611   14.7631   -0.0001 H       1  LIG1        0.1029
     29 H           0.3455   12.2332   -0.0001 H       1  LIG1        0.0656
     30 H           1.1297   14.8781   -0.0002 H       1  LIG1        0.0649
@<TRIPOS>BOND
     1    30    25    1
     2     6     1    1
     3    25    24   ar
     4    25    26   ar
     5    15    11    1
     6     1     5   ar
     7     1     2   ar
     8    24    23   ar
     9    24    29    1
    10    23    27   ar
    11    23    19    1
    12    11    12   ar
    13    11    10   ar
    14    26    27   ar
    15    26    28    1
    16    19    20   ar
    17    19    18   ar
    18    20    16   ar
    19    18    22    1
    20    18    17   ar
    21    16    12    1
    22    16    17   ar
    23     5     4   ar
    24     8     3    1
    25    12    13   ar
    26     3     4   ar
    27     3     2   ar
    28    17    21    1
    29    13     9   ar
    30    10     9   ar
    31    10    14    1
    32     9     4    1
    33     2     7    1
