@<TRIPOS>MOLECULE
mol_data/opt/m06hf/geoms/mol2/1212-12.out
 23 25 0 0 0
SMALL
GASTEIGER

@<TRIPOS>ATOM
      1 C           0.1740    1.7790   -0.0000 C.ar    1  LIG1        0.0927
      2 C           1.5283    1.7598   -0.0000 C.ar    1  LIG1       -0.0232
      3 C           1.9439    3.1365    0.0001 C.ar    1  LIG1       -0.0128
      4 C           0.7965    3.8638   -0.0000 C.ar    1  LIG1        0.1697
      5 O          -0.2801    3.0509   -0.0001 O.2     1  LIG1       -0.4598
      6 H          -0.5743    1.0071   -0.0001 H       1  LIG1        0.1029
      7 H           2.1575    0.8866   -0.0000 H       1  LIG1        0.0649
      8 H           2.9445    3.5322    0.0001 H       1  LIG1        0.0656
      9 C           0.5385    5.2929   -0.0001 C.ar    1  LIG1        0.1707
     10 C          -0.6085    6.0224   -0.0001 C.ar    1  LIG1       -0.0121
     11 C          -0.1978    7.3973   -0.0001 C.ar    1  LIG1       -0.0121
     12 C           1.1614    7.3782   -0.0001 C.ar    1  LIG1        0.1707
     13 O           1.6174    6.1063   -0.0000 O.2     1  LIG1       -0.4486
     14 H          -1.6089    5.6257   -0.0001 H       1  LIG1        0.0657
     15 H          -0.8168    8.2776   -0.0001 H       1  LIG1        0.0657
     16 C           2.1608    8.4317   -0.0001 C.ar    1  LIG1        0.1697
     17 C           3.5191    8.4106   -0.0000 C.ar    1  LIG1       -0.0128
     18 C           3.9266    9.7897   -0.0001 C.ar    1  LIG1       -0.0232
     19 C           2.7836   10.5164   -0.0002 C.ar    1  LIG1        0.0927
     20 O           1.7064    9.7018   -0.0001 O.2     1  LIG1       -0.4598
     21 H           2.5812   11.5723   -0.0002 H       1  LIG1        0.1029
     22 H           4.1389    7.5309    0.0000 H       1  LIG1        0.0656
     23 H           4.9317   10.1748   -0.0001 H       1  LIG1        0.0649
@<TRIPOS>BOND
     1    21    19    1
     2    19    20   ar
     3    19    18   ar
     4    20    16   ar
     5    15    11    1
     6    14    10    1
     7    23    18    1
     8    18    17   ar
     9    11    10   ar
    10    11    12   ar
    11    10     9   ar
    12    16    12    1
    13    16    17   ar
    14    12    13   ar
    15     6     1    1
    16     5     1   ar
    17     5     4   ar
    18     9    13   ar
    19     9     4    1
    20    17    22    1
    21     1     2   ar
    22     4     3   ar
    23     2     7    1
    24     2     3   ar
    25     3     8    1
