@<TRIPOS>MOLECULE
mol_data/opt/m06hf/geoms/mol2/12124-4.out
 36 39 0 0 0
SMALL
GASTEIGER

@<TRIPOS>ATOM
      1 C           0.5371    1.6801   -0.3753 C.ar    1  LIG1        0.0927
      2 C           1.8864    1.7874   -0.4493 C.ar    1  LIG1       -0.0232
      3 C           2.1799    3.1827   -0.2732 C.ar    1  LIG1       -0.0128
      4 C           0.9767    3.7945   -0.1030 C.ar    1  LIG1        0.1697
      5 O          -0.0204    2.8893   -0.1641 O.2     1  LIG1       -0.4598
      6 H          -0.1430    0.8506   -0.4518 H       1  LIG1        0.1029
      7 H           2.5869    0.9875   -0.6142 H       1  LIG1        0.0649
      8 H           3.1442    3.6608   -0.2845 H       1  LIG1        0.0656
      9 C           0.6060    5.1840    0.1303 C.ar    1  LIG1        0.1705
     10 C           1.3334    6.2903    0.4467 C.ar    1  LIG1       -0.0122
     11 C           0.3920    7.3674    0.5235 C.ar    1  LIG1       -0.0151
     12 C          -0.8309    6.8285    0.2527 C.ar    1  LIG1        0.1358
     13 O          -0.6975    5.5044    0.0135 O.2     1  LIG1       -0.4517
     14 H           2.3958    6.3310    0.6153 H       1  LIG1        0.0657
     15 H           0.6037    8.3952    0.7631 H       1  LIG1        0.0656
     16 C          -3.2815    6.5268   -0.0074 C.ar    1  LIG1       -0.0505
     17 C          -4.5683    7.0453   -0.0754 C.ar    1  LIG1       -0.0534
     18 C          -2.1911    7.3799    0.1818 C.ar    1  LIG1        0.0173
     19 C          -4.7957    8.4185    0.0445 C.ar    1  LIG1       -0.0178
     20 H          -5.4066    6.3818   -0.2479 H       1  LIG1        0.0624
     21 C          -2.4106    8.7548    0.2989 C.ar    1  LIG1       -0.0505
     22 C          -3.6990    9.2658    0.2332 C.ar    1  LIG1       -0.0534
     23 H          -1.5741    9.4260    0.4452 H       1  LIG1        0.0625
     24 H          -3.1120    5.4630   -0.1080 H       1  LIG1        0.0625
     25 H          -3.8630   10.3301    0.3484 H       1  LIG1        0.0624
     26 C          -6.4498   10.1103   -0.7909 C.ar    1  LIG1       -0.0540
     27 C          -7.7407   10.6246   -0.8596 C.ar    1  LIG1       -0.0612
     28 C          -6.1794    8.9706   -0.0286 C.ar    1  LIG1       -0.0179
     29 C          -8.7781   10.0043   -0.1678 C.ar    1  LIG1       -0.0617
     30 H          -7.9377   11.5034   -1.4599 H       1  LIG1        0.0618
     31 C          -7.2257    8.3549    0.6640 C.ar    1  LIG1       -0.0540
     32 C          -8.5169    8.8681    0.5938 C.ar    1  LIG1       -0.0612
     33 H          -7.0182    7.4861    1.2767 H       1  LIG1        0.0624
     34 H          -9.7827   10.4032   -0.2221 H       1  LIG1        0.0618
     35 H          -5.6482   10.5775   -1.3495 H       1  LIG1        0.0624
     36 H          -9.3168    8.3857    1.1403 H       1  LIG1        0.0618
@<TRIPOS>BOND
     1    30    27    1
     2    35    26    1
     3    27    26   ar
     4    27    29   ar
     5    26    28   ar
     6     7     2    1
     7     6     1    1
     8     2     1   ar
     9     2     3   ar
    10     1     5   ar
    11     8     3    1
    12     3     4   ar
    13    20    17    1
    14    34    29    1
    15    29    32   ar
    16     5     4   ar
    17    24    16    1
    18     4     9    1
    19    17    16   ar
    20    17    19   ar
    21    28    19    1
    22    28    31   ar
    23    16    18   ar
    24    13     9   ar
    25    13    12   ar
    26    19    22   ar
    27     9    10   ar
    28    18    12    1
    29    18    21   ar
    30    22    21   ar
    31    22    25    1
    32    12    11   ar
    33    21    23    1
    34    10    11   ar
    35    10    14    1
    36    11    15    1
    37    32    31   ar
    38    32    36    1
    39    31    33    1
