@<TRIPOS>MOLECULE
mol_data/opt/m06hf/geoms/mol2/121213-.out
 24 26 0 0 0
SMALL
GASTEIGER

@<TRIPOS>ATOM
      1 C           0.3504    1.7152   -0.0001 C.ar    1  LIG1        0.0927
      2 C           1.7037    1.7812    0.0001 C.ar    1  LIG1       -0.0232
      3 C           2.0295    3.1804    0.0001 C.ar    1  LIG1       -0.0128
      4 C           0.8368    3.8365   -0.0000 C.ar    1  LIG1        0.1697
      5 O          -0.1816    2.9539   -0.0002 O.2     1  LIG1       -0.4598
      6 H          -0.3481    0.8978   -0.0002 H       1  LIG1        0.1029
      7 H           2.3879    0.9504    0.0002 H       1  LIG1        0.0649
      8 H           3.0080    3.6296    0.0003 H       1  LIG1        0.0656
      9 C           0.4980    5.2536   -0.0001 C.ar    1  LIG1        0.1706
     10 C           1.2602    6.3799    0.0000 C.ar    1  LIG1       -0.0121
     11 C           0.3379    7.4777   -0.0001 C.ar    1  LIG1       -0.0137
     12 C          -0.9077    6.9245   -0.0003 C.ar    1  LIG1        0.1519
     13 O          -0.8122    5.5790   -0.0003 O.2     1  LIG1       -0.4503
     14 H           2.3358    6.4267    0.0002 H       1  LIG1        0.0657
     15 H           0.5829    8.5262   -0.0000 H       1  LIG1        0.0656
     16 C          -2.2556    7.4728   -0.0005 C.ar    1  LIG1        0.0821
     17 C          -3.4719    6.8254   -0.0005 C.ar    1  LIG1       -0.0334
     18 C          -4.4785    7.8285   -0.0007 C.ar    1  LIG1       -0.0437
     19 C          -3.8411    9.0467   -0.0008 C.ar    1  LIG1        0.0023
     20 N          -2.4963    8.8186   -0.0007 N.ar    1  LIG1       -0.3583
     21 H          -1.7873    9.5333   -0.0008 H       1  LIG1        0.1654
     22 H          -4.2340   10.0487   -0.0010 H       1  LIG1        0.0807
     23 H          -3.6022    5.7568   -0.0003 H       1  LIG1        0.0640
     24 H          -5.5438    7.6740   -0.0007 H       1  LIG1        0.0633
@<TRIPOS>BOND
     1    22    19    1
     2    19    20   ar
     3    19    18   ar
     4    21    20    1
     5    24    18    1
     6    20    16   ar
     7    18    17   ar
     8    16    17   ar
     9    16    12    1
    10    17    23    1
    11    12    13   ar
    12    12    11   ar
    13    13     9   ar
    14     6     1    1
    15     5     1   ar
    16     5     4   ar
    17    11    15    1
    18    11    10   ar
    19     9     4    1
    20     9    10   ar
    21     1     2   ar
    22     4     3   ar
    23    10    14    1
    24     2     3   ar
    25     2     7    1
    26     3     8    1
