@<TRIPOS>MOLECULE
mol_data/opt/m06hf/geoms/mol2/1212-413.out
 34 37 0 0 0
SMALL
GASTEIGER

@<TRIPOS>ATOM
      1 C           0.0905    1.6776    0.0025 C.ar    1  LIG1        0.0927
      2 C           1.4452    1.6484    0.0061 C.ar    1  LIG1       -0.0232
      3 C           1.8711    3.0221    0.0049 C.ar    1  LIG1       -0.0128
      4 C           0.7290    3.7589    0.0009 C.ar    1  LIG1        0.1697
      5 O          -0.3531    2.9529   -0.0005 O.2     1  LIG1       -0.4598
      6 H          -0.6640    0.9110    0.0018 H       1  LIG1        0.1029
      7 H           2.0678    0.7709    0.0091 H       1  LIG1        0.0649
      8 H           2.8754    3.4084    0.0069 H       1  LIG1        0.0656
      9 C           0.4760    5.1892   -0.0018 C.ar    1  LIG1        0.1705
     10 C          -0.6706    5.9197   -0.0054 C.ar    1  LIG1       -0.0122
     11 C          -0.2553    7.2914   -0.0061 C.ar    1  LIG1       -0.0151
     12 C           1.1080    7.2832   -0.0030 C.ar    1  LIG1        0.1358
     13 O           1.5517    6.0031   -0.0005 O.2     1  LIG1       -0.4517
     14 H          -1.6722    5.5263   -0.0071 H       1  LIG1        0.0657
     15 H          -0.8929    8.1583   -0.0087 H       1  LIG1        0.0656
     16 C           3.4845    8.0247   -0.0001 C.ar    1  LIG1       -0.0505
     17 C           4.4409    9.0282    0.0014 C.ar    1  LIG1       -0.0520
     18 C           2.1231    8.3433   -0.0018 C.ar    1  LIG1        0.0173
     19 C           4.0756   10.3792    0.0013 C.ar    1  LIG1       -0.0017
     20 H           5.4884    8.7583    0.0035 H       1  LIG1        0.0624
     21 C           1.7489    9.6879   -0.0021 C.ar    1  LIG1       -0.0505
     22 C           2.7101   10.6879   -0.0007 C.ar    1  LIG1       -0.0520
     23 H           0.7008    9.9587   -0.0037 H       1  LIG1        0.0625
     24 H           3.7865    6.9860    0.0003 H       1  LIG1        0.0625
     25 H           2.3717   11.7163   -0.0021 H       1  LIG1        0.0624
     26 C           5.1164   11.4230    0.0033 C.ar    1  LIG1        0.0465
     27 C           6.4938   11.3161   -0.0065 C.ar    1  LIG1       -0.0364
     28 C           7.0311   12.6298    0.0010 C.ar    1  LIG1       -0.0438
     29 C           5.9672   13.4996    0.0164 C.ar    1  LIG1        0.0022
     30 N           4.8227   12.7612    0.0171 N.ar    1  LIG1       -0.3607
     31 H           3.8950   13.1501    0.0285 H       1  LIG1        0.1653
     32 H           5.9368   14.5752    0.0266 H       1  LIG1        0.0807
     33 H           7.0576   10.3990   -0.0190 H       1  LIG1        0.0639
     34 H           8.0722   12.9037   -0.0039 H       1  LIG1        0.0633
@<TRIPOS>BOND
     1    33    27    1
     2    15    11    1
     3    14    10    1
     4    27    28   ar
     5    27    26   ar
     6    11    10   ar
     7    11    12   ar
     8    10     9   ar
     9    34    28    1
    10    23    21    1
    11    12    18    1
    12    12    13   ar
    13    21    18   ar
    14    21    22   ar
    15    25    22    1
    16     9    13   ar
    17     9     4    1
    18    18    16   ar
    19    22    19   ar
    20     5     4   ar
    21     5     1   ar
    22    16    24    1
    23    16    17   ar
    24     4     3   ar
    25    28    29   ar
    26    19    17   ar
    27    19    26    1
    28    17    20    1
    29     6     1    1
    30     1     2   ar
    31    26    30   ar
    32     3     2   ar
    33     3     8    1
    34     2     7    1
    35    29    30   ar
    36    29    32    1
    37    30    31    1
