@<TRIPOS>MOLECULE
mol_data/opt/m06hf/geoms/mol2/12128-5-.out
 29 32 0 0 0
SMALL
GASTEIGER

@<TRIPOS>ATOM
      1 C           0.5834    1.6530   -0.0000 C.ar    1  LIG1        0.0927
      2 C           1.9310    1.8096   -0.0002 C.ar    1  LIG1       -0.0232
      3 C           2.1612    3.2260   -0.0002 C.ar    1  LIG1       -0.0128
      4 C           0.9268    3.7992   -0.0001 C.ar    1  LIG1        0.1697
      5 O          -0.0300    2.8517   -0.0000 O.2     1  LIG1       -0.4598
      6 H          -0.0585    0.7902    0.0001 H       1  LIG1        0.1029
      7 H           2.6686    1.0261   -0.0002 H       1  LIG1        0.0649
      8 H           3.1072    3.7393   -0.0002 H       1  LIG1        0.0656
      9 C           0.4977    5.1905   -0.0001 C.ar    1  LIG1        0.1707
     10 C           1.1990    6.3633   -0.0001 C.ar    1  LIG1       -0.0121
     11 C           0.2199    7.4016   -0.0001 C.ar    1  LIG1       -0.0119
     12 C          -0.9875    6.7697   -0.0001 C.ar    1  LIG1        0.1761
     13 O          -0.8234    5.4331   -0.0001 O.2     1  LIG1       -0.4485
     14 H           2.2700    6.4690   -0.0002 H       1  LIG1        0.0657
     15 H           0.3726    8.4670   -0.0002 H       1  LIG1        0.0657
     16 C          -2.3458    7.3046   -0.0000 C.ar    1  LIG1        0.2381
     17 N          -3.3789    6.4575    0.0001 N.ar    1  LIG1       -0.1220
     18 C          -4.6949    8.2939    0.0000 C.ar    1  LIG1        0.2099
     19 N          -2.4636    8.6363   -0.0001 N.ar    1  LIG1       -0.1220
     20 N          -4.5725    6.9636    0.0001 N.ar    1  LIG1       -0.1246
     21 N          -3.6560    9.1372   -0.0001 N.ar    1  LIG1       -0.1246
     22 C          -6.0422    8.8635    0.0001 C.ar    1  LIG1        0.0598
     23 C          -7.2208    8.1715    0.0003 C.ar    1  LIG1       -0.0438
     24 C          -8.3520    9.0421    0.0002 C.ar    1  LIG1       -0.0540
     25 C          -7.9884   10.3571   -0.0000 C.ar    1  LIG1       -0.0236
     26 S          -6.2867   10.5683    0.0001 S.2     1  LIG1       -0.0934
     27 H          -8.6351   11.2202   -0.0002 H       1  LIG1        0.0693
     28 H          -7.2617    7.0923    0.0004 H       1  LIG1        0.0630
     29 H          -9.3765    8.7024    0.0003 H       1  LIG1        0.0623
@<TRIPOS>BOND
     1     8     3    1
     2     7     2    1
     3    14    10    1
     4    15    11    1
     5    27    25    1
     6     2     3   ar
     7     2     1   ar
     8     3     4   ar
     9    11    10   ar
    10    11    12   ar
    11    10     9   ar
    12     9     4    1
    13     9    13   ar
    14     4     5   ar
    15    19    21   ar
    16    19    16   ar
    17    12    13   ar
    18    12    16    1
    19    21    18   ar
    20    16    17   ar
    21    25    26   ar
    22    25    24   ar
    23     5     1   ar
    24     1     6    1
    25    18    20   ar
    26    18    22    1
    27    17    20   ar
    28    22    26   ar
    29    22    23   ar
    30    24    23   ar
    31    24    29    1
    32    23    28    1
