@<TRIPOS>MOLECULE
mol_data/opt/m06hf/geoms/mol2/1212128-.out
 29 32 0 0 0
SMALL
GASTEIGER

@<TRIPOS>ATOM
      1 C           0.6794    1.6792   -0.0001 C.ar    1  LIG1        0.0927
      2 C           2.0269    1.8354    0.0000 C.ar    1  LIG1       -0.0232
      3 C           2.2578    3.2522   -0.0000 C.ar    1  LIG1       -0.0128
      4 C           1.0234    3.8263   -0.0001 C.ar    1  LIG1        0.1697
      5 O           0.0667    2.8786   -0.0001 O.2     1  LIG1       -0.4598
      6 H           0.0356    0.8179   -0.0001 H       1  LIG1        0.1029
      7 H           2.7650    1.0527    0.0001 H       1  LIG1        0.0649
      8 H           3.2040    3.7653   -0.0000 H       1  LIG1        0.0656
      9 C           0.5912    5.2169   -0.0001 C.ar    1  LIG1        0.1707
     10 C           1.2822    6.3924   -0.0001 C.ar    1  LIG1       -0.0121
     11 C           0.2947    7.4265   -0.0001 C.ar    1  LIG1       -0.0121
     12 C          -0.9105    6.7899   -0.0001 C.ar    1  LIG1        0.1707
     13 O          -0.7336    5.4545   -0.0001 O.2     1  LIG1       -0.4486
     14 H           2.3521    6.5067   -0.0001 H       1  LIG1        0.0657
     15 H           0.4578    8.4906   -0.0001 H       1  LIG1        0.0657
     16 C          -2.2772    7.2882   -0.0002 C.ar    1  LIG1        0.1707
     17 C          -2.7881    8.5565   -0.0002 C.ar    1  LIG1       -0.0121
     18 C          -4.2063    8.4025   -0.0002 C.ar    1  LIG1       -0.0119
     19 C          -4.4313    7.0585   -0.0002 C.ar    1  LIG1        0.1761
     20 O          -3.2673    6.3821   -0.0002 O.2     1  LIG1       -0.4485
     21 H          -2.2258    9.4743   -0.0002 H       1  LIG1        0.0657
     22 H          -4.9643    9.1665   -0.0003 H       1  LIG1        0.0657
     23 C          -5.6786    6.2987   -0.0003 C.ar    1  LIG1        0.2381
     24 N          -5.6244    4.9657   -0.0003 N.ar    1  LIG1       -0.1226
     25 C          -7.8767    5.0350   -0.0004 C.ar    1  LIG1        0.1605
     26 N          -6.8098    7.0144   -0.0003 N.ar    1  LIG1       -0.1226
     27 N          -6.7553    4.3222   -0.0003 N.ar    1  LIG1       -0.1338
     28 N          -7.9324    6.3668   -0.0003 N.ar    1  LIG1       -0.1338
     29 H          -8.8129    4.4973   -0.0003 H       1  LIG1        0.1085
@<TRIPOS>BOND
     1    25    29    1
     2    25    28   ar
     3    25    27   ar
     4    28    26   ar
     5    26    23   ar
     6    27    24   ar
     7    22    18    1
     8    24    23   ar
     9    23    19    1
    10    18    19   ar
    11    18    17   ar
    12    19    20   ar
    13    17    21    1
    14    17    16   ar
    15    20    16   ar
    16    16    12    1
    17    12    13   ar
    18    12    11   ar
    19    13     9   ar
    20    15    11    1
    21    11    10   ar
    22     5     1   ar
    23     5     4   ar
    24    10     9   ar
    25    10    14    1
    26     9     4    1
    27     6     1    1
    28     1     2   ar
    29     4     3   ar
    30     3     8    1
    31     3     2   ar
    32     2     7    1
