@<TRIPOS>MOLECULE
mol_data/opt/m06hf/geoms/mol2/121213.out
 24 26 0 0 0
SMALL
GASTEIGER

@<TRIPOS>ATOM
      1 C           0.3219    1.7308   -0.0000 C.ar    1  LIG1        0.0927
      2 C           1.6757    1.7809   -0.0002 C.ar    1  LIG1       -0.0232
      3 C           2.0186    3.1765   -0.0001 C.ar    1  LIG1       -0.0128
      4 C           0.8347    3.8473   -0.0001 C.ar    1  LIG1        0.1697
      5 O          -0.1956    2.9767    0.0000 O.2     1  LIG1       -0.4598
      6 H          -0.3853    0.9209    0.0000 H       1  LIG1        0.1029
      7 H           2.3500    0.9420   -0.0004 H       1  LIG1        0.0649
      8 H           3.0029    3.6129   -0.0001 H       1  LIG1        0.0656
      9 C           0.5104    5.2671   -0.0000 C.ar    1  LIG1        0.1706
     10 C           1.2768    6.3898   -0.0000 C.ar    1  LIG1       -0.0121
     11 C           0.3633    7.4963   -0.0001 C.ar    1  LIG1       -0.0137
     12 C          -0.8840    6.9536    0.0000 C.ar    1  LIG1        0.1519
     13 O          -0.7999    5.6024    0.0001 O.2     1  LIG1       -0.4503
     14 H           2.3528    6.4281   -0.0001 H       1  LIG1        0.0657
     15 H           0.6027    8.5456   -0.0002 H       1  LIG1        0.0656
     16 C          -2.2320    7.5030    0.0001 C.ar    1  LIG1        0.0821
     17 C          -2.6981    8.8009   -0.0002 C.ar    1  LIG1       -0.0334
     18 C          -4.1174    8.7312    0.0007 C.ar    1  LIG1       -0.0437
     19 C          -4.4614    7.3984   -0.0000 C.ar    1  LIG1        0.0023
     20 N          -3.3122    6.6684    0.0003 N.ar    1  LIG1       -0.3583
     21 H          -3.2361    5.6624    0.0003 H       1  LIG1        0.1654
     22 H          -5.4256    6.9204   -0.0001 H       1  LIG1        0.0807
     23 H          -2.0878    9.6888   -0.0004 H       1  LIG1        0.0640
     24 H          -4.8043    9.5602    0.0011 H       1  LIG1        0.0633
@<TRIPOS>BOND
     1    23    17    1
     2     7     2    1
     3     2     3   ar
     4     2     1   ar
     5    15    11    1
     6    17    16   ar
     7    17    18   ar
     8     8     3    1
     9    11    10   ar
    10    11    12   ar
    11    22    19    1
    12     3     4   ar
    13    14    10    1
    14     4     9    1
    15     4     5   ar
    16    19    20   ar
    17    19    18   ar
    18    10     9   ar
    19     9    13   ar
    20     1     5   ar
    21     1     6    1
    22    12    13   ar
    23    12    16    1
    24    16    20   ar
    25    20    21    1
    26    18    24    1
