@<TRIPOS>MOLECULE
mol_data/opt/m06hf/geoms/mol2/12128-13-.out
 30 33 0 0 0
SMALL
GASTEIGER

@<TRIPOS>ATOM
      1 C           0.5776    1.6585   -0.0000 C.ar    1  LIG1        0.0927
      2 C           1.9251    1.8151    0.0001 C.ar    1  LIG1       -0.0232
      3 C           2.1552    3.2317    0.0001 C.ar    1  LIG1       -0.0128
      4 C           0.9207    3.8049   -0.0000 C.ar    1  LIG1        0.1697
      5 O          -0.0358    2.8571   -0.0001 O.2     1  LIG1       -0.4598
      6 H          -0.0644    0.7957   -0.0001 H       1  LIG1        0.1029
      7 H           2.6628    1.0318    0.0002 H       1  LIG1        0.0649
      8 H           3.1011    3.7452    0.0002 H       1  LIG1        0.0656
      9 C           0.4913    5.1962   -0.0001 C.ar    1  LIG1        0.1707
     10 C           1.1921    6.3689   -0.0000 C.ar    1  LIG1       -0.0121
     11 C           0.2123    7.4073   -0.0001 C.ar    1  LIG1       -0.0119
     12 C          -0.9948    6.7754   -0.0002 C.ar    1  LIG1        0.1761
     13 O          -0.8301    5.4390   -0.0001 O.2     1  LIG1       -0.4485
     14 H           2.2630    6.4748    0.0000 H       1  LIG1        0.0657
     15 H           0.3652    8.4725   -0.0001 H       1  LIG1        0.0657
     16 C          -2.3547    7.3092   -0.0003 C.ar    1  LIG1        0.2381
     17 N          -3.3875    6.4591   -0.0003 N.ar    1  LIG1       -0.1220
     18 C          -4.7092    8.2897   -0.0004 C.ar    1  LIG1        0.2194
     19 N          -2.4756    8.6390   -0.0003 N.ar    1  LIG1       -0.1220
     20 N          -4.5827    6.9569   -0.0003 N.ar    1  LIG1       -0.1236
     21 N          -3.6710    9.1356   -0.0004 N.ar    1  LIG1       -0.1236
     22 C          -6.0422    8.8678   -0.0005 C.ar    1  LIG1        0.0875
     23 C          -7.2907    8.2785   -0.0005 C.ar    1  LIG1       -0.0333
     24 C          -8.2370    9.3310   -0.0006 C.ar    1  LIG1       -0.0437
     25 C          -7.5298   10.5183   -0.0007 C.ar    1  LIG1        0.0023
     26 N          -6.2072   10.2233   -0.0006 N.ar    1  LIG1       -0.3582
     27 H          -5.4318   10.8702   -0.0005 H       1  LIG1        0.1654
     28 H          -7.8750   11.5379   -0.0007 H       1  LIG1        0.0807
     29 H          -7.4743    7.2178   -0.0005 H       1  LIG1        0.0640
     30 H          -9.3093    9.2371   -0.0007 H       1  LIG1        0.0633
@<TRIPOS>BOND
     1    28    25    1
     2    30    24    1
     3    25    24   ar
     4    25    26   ar
     5    24    23   ar
     6    26    27    1
     7    26    22   ar
     8    23    22   ar
     9    23    29    1
    10    22    18    1
    11    18    21   ar
    12    18    20   ar
    13    21    19   ar
    14    20    17   ar
    15    19    16   ar
    16    17    16   ar
    17    16    12    1
    18    12    13   ar
    19    12    11   ar
    20    15    11    1
    21    13     9   ar
    22    11    10   ar
    23     6     1    1
    24     5     1   ar
    25     5     4   ar
    26     9    10   ar
    27     9     4    1
    28    10    14    1
    29     1     2   ar
    30     4     3   ar
    31     3     2   ar
    32     3     8    1
    33     2     7    1
