@<TRIPOS>MOLECULE
mol_data/opt/m06hf/geoms/mol2/1212-124-.out
 33 36 0 0 0
SMALL
GASTEIGER

@<TRIPOS>ATOM
      1 C           0.1735    1.6936    0.0004 C.ar    1  LIG1        0.0927
      2 C           1.5283    1.6760    0.0006 C.ar    1  LIG1       -0.0232
      3 C           1.9428    3.0530    0.0005 C.ar    1  LIG1       -0.0128
      4 C           0.7942    3.7797    0.0001 C.ar    1  LIG1        0.1697
      5 O          -0.2808    2.9650    0.0001 O.2     1  LIG1       -0.4598
      6 H          -0.5735    0.9199    0.0005 H       1  LIG1        0.1029
      7 H           2.1585    0.8037    0.0008 H       1  LIG1        0.0649
      8 H           2.9436    3.4480    0.0005 H       1  LIG1        0.0656
      9 C           0.5313    5.2081   -0.0002 C.ar    1  LIG1        0.1707
     10 C          -0.6187    5.9345   -0.0005 C.ar    1  LIG1       -0.0121
     11 C          -0.2128    7.3102   -0.0006 C.ar    1  LIG1       -0.0121
     12 C           1.1475    7.2964   -0.0004 C.ar    1  LIG1        0.1707
     13 O           1.6067    6.0256   -0.0001 O.2     1  LIG1       -0.4486
     14 H          -1.6183    5.5361   -0.0005 H       1  LIG1        0.0657
     15 H          -0.8366    8.1869   -0.0009 H       1  LIG1        0.0657
     16 C           2.1420    8.3520   -0.0005 C.ar    1  LIG1        0.1706
     17 C           3.5018    8.3367   -0.0003 C.ar    1  LIG1       -0.0122
     18 C           3.9036    9.7122   -0.0005 C.ar    1  LIG1       -0.0151
     19 C           2.7579   10.4510   -0.0008 C.ar    1  LIG1        0.1358
     20 O           1.6869    9.6213   -0.0008 O.2     1  LIG1       -0.4517
     21 H           4.1259    7.4602   -0.0000 H       1  LIG1        0.0657
     22 H           4.9117   10.0887   -0.0004 H       1  LIG1        0.0656
     23 C           1.1636   12.3579   -0.0015 C.ar    1  LIG1       -0.0511
     24 C           0.9041   13.7244   -0.0019 C.ar    1  LIG1       -0.0611
     25 C           2.4821   11.8958   -0.0011 C.ar    1  LIG1        0.0173
     26 C           1.9540   14.6385   -0.0017 C.ar    1  LIG1       -0.0617
     27 H          -0.1197   14.0746   -0.0022 H       1  LIG1        0.0618
     28 C           3.5350   12.8153   -0.0009 C.ar    1  LIG1       -0.0511
     29 C           3.2697   14.1788   -0.0013 C.ar    1  LIG1       -0.0611
     30 H           4.5587   12.4649   -0.0006 H       1  LIG1        0.0625
     31 H           1.7496   15.7009   -0.0020 H       1  LIG1        0.0618
     32 H           0.3516   11.6435   -0.0017 H       1  LIG1        0.0625
     33 H           4.0907   14.8836   -0.0011 H       1  LIG1        0.0618
@<TRIPOS>BOND
     1    27    24    1
     2    31    26    1
     3    24    26   ar
     4    24    23   ar
     5    26    29   ar
     6    32    23    1
     7    23    25   ar
     8    29    33    1
     9    29    28   ar
    10    25    28   ar
    11    25    19    1
    12    28    30    1
    13    15    11    1
    14    20    19   ar
    15    20    16   ar
    16    19    18   ar
    17    11    10   ar
    18    11    12   ar
    19    14    10    1
    20    16    12    1
    21    16    17   ar
    22    18    22    1
    23    18    17   ar
    24    10     9   ar
    25    12    13   ar
    26    17    21    1
    27     9    13   ar
    28     9     4    1
    29     5     4   ar
    30     5     1   ar
    31     4     3   ar
    32     1     6    1
    33     1     2   ar
    34     3     8    1
    35     3     2   ar
    36     2     7    1
