@<TRIPOS>MOLECULE
mol_data/opt/m06hf/geoms/mol2/1212.out
 16 17 0 0 0
SMALL
GASTEIGER

@<TRIPOS>ATOM
      1 C           0.2415    1.7909   -0.0000 C.ar    1  LIG1        0.0927
      2 C           1.5963    1.8242    0.0000 C.ar    1  LIG1       -0.0232
      3 C           1.9549    3.2155    0.0000 C.ar    1  LIG1       -0.0128
      4 C           0.7791    3.9002   -0.0001 C.ar    1  LIG1        0.1696
      5 O          -0.2601    3.0421   -0.0001 O.2     1  LIG1       -0.4598
      6 H          -0.4777    0.9911   -0.0001 H       1  LIG1        0.1029
      7 H           2.2602    0.9777    0.0001 H       1  LIG1        0.0649
      8 H           2.9437    3.6411    0.0000 H       1  LIG1        0.0656
      9 C           0.4706    5.3263   -0.0001 C.ar    1  LIG1        0.1696
     10 C           1.2581    6.4358   -0.0001 C.ar    1  LIG1       -0.0128
     11 C           0.3564    7.5543   -0.0001 C.ar    1  LIG1       -0.0232
     12 C          -0.8910    7.0246   -0.0002 C.ar    1  LIG1        0.0927
     13 O          -0.8304    5.6779   -0.0002 O.2     1  LIG1       -0.4598
     14 H          -1.8765    7.4555   -0.0002 H       1  LIG1        0.1029
     15 H           2.3344    6.4570   -0.0000 H       1  LIG1        0.0656
     16 H           0.6109    8.5996   -0.0001 H       1  LIG1        0.0649
@<TRIPOS>BOND
     1    14    12    1
     2    13    12   ar
     3    13     9   ar
     4    12    11   ar
     5    11    16    1
     6    11    10   ar
     7     5     4   ar
     8     5     1   ar
     9     9    10   ar
    10     9     4    1
    11    10    15    1
    12     4     3   ar
    13     6     1    1
    14     1     2   ar
    15     3     2   ar
    16     3     8    1
    17     2     7    1
