@<TRIPOS>MOLECULE
mol_data/opt/m06hf/geoms/mol2/1212134.out
 34 37 0 0 0
SMALL
GASTEIGER

@<TRIPOS>ATOM
      1 C           0.4541    1.7305   -0.1984 C.ar    1  LIG1        0.0927
      2 C           1.8041    1.8036   -0.2870 C.ar    1  LIG1       -0.0232
      3 C           2.1272    3.2026   -0.2392 C.ar    1  LIG1       -0.0128
      4 C           0.9376    3.8526   -0.1231 C.ar    1  LIG1        0.1697
      5 O          -0.0786    2.9663   -0.0989 O.2     1  LIG1       -0.4598
      6 H          -0.2426    0.9116   -0.1939 H       1  LIG1        0.1029
      7 H           2.4884    0.9781   -0.3776 H       1  LIG1        0.0649
      8 H           3.1026    3.6554   -0.2870 H       1  LIG1        0.0656
      9 C           0.5971    5.2645   -0.0204 C.ar    1  LIG1        0.1706
     10 C           1.3524    6.3928    0.0563 C.ar    1  LIG1       -0.0121
     11 C           0.4282    7.4868    0.1334 C.ar    1  LIG1       -0.0137
     12 C          -0.8143    6.9320    0.1007 C.ar    1  LIG1        0.1519
     13 O          -0.7166    5.5850    0.0073 O.2     1  LIG1       -0.4503
     14 H           2.4276    6.4420    0.0606 H       1  LIG1        0.0657
     15 H           0.6553    8.5363    0.2045 H       1  LIG1        0.0656
     16 C          -2.1650    7.4694    0.1449 C.ar    1  LIG1        0.0825
     17 C          -2.6376    8.7620    0.2517 C.ar    1  LIG1       -0.0328
     18 C          -4.0525    8.6881    0.2253 C.ar    1  LIG1       -0.0357
     19 C          -4.3996    7.3553    0.1068 C.ar    1  LIG1        0.0470
     20 N          -3.2412    6.6347    0.0653 N.ar    1  LIG1       -0.3518
     21 H          -3.1709    5.6394   -0.0891 H       1  LIG1        0.1660
     22 H          -2.0314    9.6468    0.3502 H       1  LIG1        0.0640
     23 H          -4.7476    9.5051    0.3226 H       1  LIG1        0.0639
     24 C          -6.7849    7.3464   -0.6007 C.ar    1  LIG1       -0.0526
     25 C          -8.0406    6.7521   -0.6446 C.ar    1  LIG1       -0.0611
     26 C          -5.7247    6.7089    0.0506 C.ar    1  LIG1       -0.0017
     27 C          -8.2488    5.5076   -0.0532 C.ar    1  LIG1       -0.0617
     28 H          -8.8546    7.2547   -1.1504 H       1  LIG1        0.0618
     29 C          -5.9415    5.4645    0.6506 C.ar    1  LIG1       -0.0526
     30 C          -7.1952    4.8649    0.5915 C.ar    1  LIG1       -0.0611
     31 H          -5.1357    4.9802    1.1889 H       1  LIG1        0.0624
     32 H          -9.2254    5.0432   -0.0940 H       1  LIG1        0.0618
     33 H          -6.6102    8.2987   -1.0843 H       1  LIG1        0.0624
     34 H          -7.3520    3.9022    1.0600 H       1  LIG1        0.0618
@<TRIPOS>BOND
     1    28    25    1
     2    33    24    1
     3    25    24   ar
     4    25    27   ar
     5    24    26   ar
     6     7     2    1
     7     2     3   ar
     8     2     1   ar
     9     8     3    1
    10     3     4   ar
    11     1     6    1
    12     1     5   ar
    13     4     5   ar
    14     4     9    1
    15    32    27    1
    16    21    20    1
    17    27    30   ar
    18     9    13   ar
    19     9    10   ar
    20    13    12   ar
    21    26    19    1
    22    26    29   ar
    23    10    14    1
    24    10    11   ar
    25    20    19   ar
    26    20    16   ar
    27    12    11   ar
    28    12    16    1
    29    19    18   ar
    30    11    15    1
    31    16    17   ar
    32    18    17   ar
    33    18    23    1
    34    17    22    1
    35    30    29   ar
    36    30    34    1
    37    29    31    1
