@<TRIPOS>MOLECULE
mol_data/opt/m06hf/geoms/mol2/12125-12.out
 30 33 0 0 0
SMALL
GASTEIGER

@<TRIPOS>ATOM
      1 C           0.4566    1.6594    0.0002 C.ar    1  LIG1        0.0927
      2 C           1.8093    1.7482    0.0003 C.ar    1  LIG1       -0.0232
      3 C           2.1109    3.1530   -0.0002 C.ar    1  LIG1       -0.0128
      4 C           0.9077    3.7883   -0.0000 C.ar    1  LIG1        0.1697
      5 O          -0.0959    2.8888    0.0002 O.2     1  LIG1       -0.4598
      6 H          -0.2269    0.8292    0.0003 H       1  LIG1        0.1029
      7 H           2.5072    0.9289    0.0004 H       1  LIG1        0.0649
      8 H           3.0822    3.6172   -0.0005 H       1  LIG1        0.0656
      9 C           0.5418    5.1982   -0.0001 C.ar    1  LIG1        0.1706
     10 C           1.2817    6.3409   -0.0003 C.ar    1  LIG1       -0.0121
     11 C           0.3383    7.4190   -0.0002 C.ar    1  LIG1       -0.0146
     12 C          -0.8954    6.8404   -0.0001 C.ar    1  LIG1        0.1424
     13 O          -0.7732    5.4950    0.0000 O.2     1  LIG1       -0.4512
     14 H           2.3559    6.4077   -0.0005 H       1  LIG1        0.0657
     15 H           0.5518    8.4749   -0.0003 H       1  LIG1        0.0656
     16 C          -2.2554    7.3608    0.0000 C.ar    1  LIG1        0.0551
     17 C          -3.4108    6.6347    0.0001 C.ar    1  LIG1       -0.0433
     18 C          -4.5775    7.4608    0.0001 C.ar    1  LIG1       -0.0433
     19 C          -4.2781    8.7915    0.0001 C.ar    1  LIG1        0.0551
     20 S          -2.5678    9.0642    0.0001 S.2     1  LIG1       -0.0821
     21 H          -3.4186    5.5549    0.0001 H       1  LIG1        0.0630
     22 H          -5.5921    7.0928    0.0001 H       1  LIG1        0.0630
     23 C          -5.2184    9.9056    0.0000 C.ar    1  LIG1        0.1413
     24 C          -5.0721   11.2585    0.0003 C.ar    1  LIG1       -0.0154
     25 C          -6.4038   11.7994    0.0001 C.ar    1  LIG1       -0.0233
     26 C          -7.2374   10.7318   -0.0002 C.ar    1  LIG1        0.0926
     27 O          -6.5303    9.5827   -0.0003 O.2     1  LIG1       -0.4624
     28 H          -8.3083   10.6325   -0.0005 H       1  LIG1        0.1029
     29 H          -4.1423   11.8023    0.0006 H       1  LIG1        0.0655
     30 H          -6.6891   12.8368    0.0002 H       1  LIG1        0.0649
@<TRIPOS>BOND
     1    14    10    1
     2     8     3    1
     3    28    26    1
     4    10    11   ar
     5    10     9   ar
     6    15    11    1
     7    27    26   ar
     8    27    23   ar
     9    11    12   ar
    10    26    25   ar
    11     3     4   ar
    12     3     2   ar
    13     9     4    1
    14     9    13   ar
    15    12    16    1
    16    12    13   ar
    17     4     5   ar
    18    16    20   ar
    19    16    17   ar
    20    23    19    1
    21    23    24   ar
    22    19    20   ar
    23    19    18   ar
    24    21    17    1
    25    17    18   ar
    26    25    30    1
    27    25    24   ar
    28    18    22    1
    29     1     5   ar
    30     1     2   ar
    31     1     6    1
    32     2     7    1
    33    24    29    1
