@<TRIPOS>MOLECULE
mol_data/opt/m06hf/geoms/mol2/1212-4-13.out
 34 37 0 0 0
SMALL
GASTEIGER

@<TRIPOS>ATOM
      1 C           0.0283    1.6898    0.1047 C.ar    1  LIG1        0.0927
      2 C           1.3783    1.6419    0.2079 C.ar    1  LIG1       -0.0232
      3 C           1.8269    3.0079    0.1718 C.ar    1  LIG1       -0.0128
      4 C           0.7013    3.7591    0.0494 C.ar    1  LIG1        0.1697
      5 O          -0.3921    2.9695    0.0091 O.2     1  LIG1       -0.4598
      6 H          -0.7376    0.9348    0.0860 H       1  LIG1        0.1029
      7 H           1.9838    0.7569    0.2979 H       1  LIG1        0.0649
      8 H           2.8350    3.3798    0.2276 H       1  LIG1        0.0656
      9 C           0.4752    5.1908   -0.0431 C.ar    1  LIG1        0.1705
     10 C          -0.6544    5.9374   -0.1625 C.ar    1  LIG1       -0.0122
     11 C          -0.2144    7.3008   -0.2024 C.ar    1  LIG1       -0.0151
     12 C           1.1449    7.2719   -0.1052 C.ar    1  LIG1        0.1358
     13 O           1.5634    5.9869   -0.0086 O.2     1  LIG1       -0.4517
     14 H          -1.6608    5.5598   -0.2139 H       1  LIG1        0.0657
     15 H          -0.8342    8.1762   -0.2901 H       1  LIG1        0.0656
     16 C           1.8274    9.6628   -0.2042 C.ar    1  LIG1       -0.0505
     17 C           2.8055   10.6462   -0.1902 C.ar    1  LIG1       -0.0520
     18 C           2.1783    8.3152   -0.0868 C.ar    1  LIG1        0.0173
     19 C           4.1557   10.3096   -0.0405 C.ar    1  LIG1       -0.0017
     20 H           2.5217   11.6824   -0.3292 H       1  LIG1        0.0624
     21 C           3.5268    7.9725    0.0490 C.ar    1  LIG1       -0.0505
     22 C           4.5011    8.9605    0.0794 C.ar    1  LIG1       -0.0520
     23 H           3.8025    6.9308    0.1438 H       1  LIG1        0.0625
     24 H           0.7893    9.9430   -0.3264 H       1  LIG1        0.0625
     25 H           5.5407    8.6938    0.2182 H       1  LIG1        0.0624
     26 C           5.2005   11.3487   -0.0190 C.ar    1  LIG1        0.0465
     27 C           6.4873   11.3437   -0.5146 C.ar    1  LIG1       -0.0364
     28 C           7.0569   12.6169   -0.2372 C.ar    1  LIG1       -0.0438
     29 C           6.1013   13.3539    0.4204 C.ar    1  LIG1        0.0022
     30 N           4.9838   12.5803    0.5384 N.ar    1  LIG1       -0.3607
     31 H           4.1513   12.8319    1.0467 H       1  LIG1        0.1653
     32 H           6.1309   14.3549    0.8135 H       1  LIG1        0.0807
     33 H           6.9448   10.5284   -1.0503 H       1  LIG1        0.0639
     34 H           8.0456   12.9546   -0.4969 H       1  LIG1        0.0633
@<TRIPOS>BOND
     1    33    27    1
     2    27    28   ar
     3    27    26   ar
     4    34    28    1
     5    20    17    1
     6    24    16    1
     7    15    11    1
     8    28    29   ar
     9    14    10    1
    10    16    17   ar
    11    16    18   ar
    12    11    10   ar
    13    11    12   ar
    14    17    19   ar
    15    10     9   ar
    16    12    18    1
    17    12    13   ar
    18    18    21   ar
    19     9    13   ar
    20     9     4    1
    21    19    26    1
    22    19    22   ar
    23    26    30   ar
    24     5     4   ar
    25     5     1   ar
    26    21    22   ar
    27    21    23    1
    28     4     3   ar
    29    22    25    1
    30     6     1    1
    31     1     2   ar
    32     3     2   ar
    33     3     8    1
    34     2     7    1
    35    29    30   ar
    36    29    32    1
    37    30    31    1
