@<TRIPOS>MOLECULE
mol_data/opt/m06hf/geoms/mol2/12125.out
 23 25 0 0 0
SMALL
GASTEIGER

@<TRIPOS>ATOM
      1 C           0.3314    1.7306    0.0001 C.ar    1  LIG1        0.0927
      2 C           1.6859    1.7872    0.0001 C.ar    1  LIG1       -0.0232
      3 C           2.0207    3.1842    0.0001 C.ar    1  LIG1       -0.0128
      4 C           0.8325    3.8477   -0.0000 C.ar    1  LIG1        0.1697
      5 O          -0.1920    2.9725   -0.0001 O.2     1  LIG1       -0.4598
      6 H          -0.3718    0.9172    0.0001 H       1  LIG1        0.1029
      7 H           2.3643    0.9518    0.0001 H       1  LIG1        0.0649
      8 H           3.0027    3.6254    0.0002 H       1  LIG1        0.0656
      9 C           0.5022    5.2661   -0.0002 C.ar    1  LIG1        0.1706
     10 C           1.2717    6.3889   -0.0002 C.ar    1  LIG1       -0.0121
     11 C           0.3587    7.4925   -0.0003 C.ar    1  LIG1       -0.0146
     12 C          -0.8905    6.9485   -0.0004 C.ar    1  LIG1        0.1424
     13 O          -0.8042    5.6001   -0.0003 O.2     1  LIG1       -0.4512
     14 H           2.3474    6.4268   -0.0000 H       1  LIG1        0.0657
     15 H           0.6012    8.5414   -0.0004 H       1  LIG1        0.0656
     16 C          -2.2320    7.5195   -0.0005 C.ar    1  LIG1        0.0544
     17 C          -2.5823    8.8404   -0.0007 C.ar    1  LIG1       -0.0440
     18 C          -4.0003    9.0293   -0.0008 C.ar    1  LIG1       -0.0540
     19 C          -4.6799    7.8503   -0.0007 C.ar    1  LIG1       -0.0236
     20 S          -3.6224    6.4944   -0.0004 S.2     1  LIG1       -0.0936
     21 H          -5.7470    7.6987   -0.0007 H       1  LIG1        0.0693
     22 H          -1.8631    9.6463   -0.0008 H       1  LIG1        0.0630
     23 H          -4.4790    9.9972   -0.0009 H       1  LIG1        0.0623
@<TRIPOS>BOND
     1    23    18    1
     2    18    19   ar
     3    18    17   ar
     4    22    17    1
     5    21    19    1
     6    19    20   ar
     7    17    16   ar
     8    16    12    1
     9    16    20   ar
    10    12    11   ar
    11    12    13   ar
    12    15    11    1
    13    11    10   ar
    14    13     9   ar
    15     9    10   ar
    16     9     4    1
    17    10    14    1
    18     5     4   ar
    19     5     1   ar
    20     4     3   ar
    21     2     1   ar
    22     2     3   ar
    23     2     7    1
    24     1     6    1
    25     3     8    1
