@<TRIPOS>MOLECULE
mol_data/opt/m06hf/geoms/mol2/1213-13.out
 25 27 0 0 0
SMALL
GASTEIGER

@<TRIPOS>ATOM
      1 C           0.1962    1.7636    0.3142 C.ar    1  LIG1        0.0926
      2 C           1.5458    1.7540    0.2074 C.ar    1  LIG1       -0.0233
      3 C           1.9339    3.1237    0.0006 C.ar    1  LIG1       -0.0144
      4 C           0.7788    3.8442    0.0090 C.ar    1  LIG1        0.1509
      5 O          -0.2754    3.0235    0.1984 O.2     1  LIG1       -0.4615
      6 H          -0.5364    0.9920    0.4680 H       1  LIG1        0.1029
      7 H           2.1884    0.8922    0.2590 H       1  LIG1        0.0649
      8 H           2.9298    3.5013   -0.1579 H       1  LIG1        0.0656
      9 C           0.4847    5.2628   -0.1415 C.ar    1  LIG1        0.0826
     10 C          -0.7000    5.9032   -0.4356 C.ar    1  LIG1       -0.0328
     11 C          -0.4243    7.2955   -0.4734 C.ar    1  LIG1       -0.0343
     12 C           0.9184    7.4570   -0.1947 C.ar    1  LIG1        0.0634
     13 N           1.4519    6.2167    0.0019 N.ar    1  LIG1       -0.3506
     14 H           2.3931    6.0555    0.3250 H       1  LIG1        0.1660
     15 H          -1.6394    5.4114   -0.6215 H       1  LIG1        0.0640
     16 H          -1.1117    8.0883   -0.7187 H       1  LIG1        0.0639
     17 C           1.7465    8.6575   -0.0801 C.ar    1  LIG1        0.0629
     18 C           3.0487    8.9041   -0.4599 C.ar    1  LIG1       -0.0350
     19 C           3.3481   10.2462   -0.0918 C.ar    1  LIG1       -0.0438
     20 C           2.2196   10.7684    0.4937 C.ar    1  LIG1        0.0022
     21 N           1.2612    9.7976    0.4951 N.ar    1  LIG1       -0.3595
     22 H           0.3451    9.8672    0.9084 H       1  LIG1        0.1654
     23 H           2.0271   11.7430    0.9067 H       1  LIG1        0.0807
     24 H           3.6900    8.2110   -0.9791 H       1  LIG1        0.0639
     25 H           4.2760   10.7689   -0.2504 H       1  LIG1        0.0633
@<TRIPOS>BOND
     1    24    18    1
     2    16    11    1
     3    15    10    1
     4    11    10   ar
     5    11    12   ar
     6    18    19   ar
     7    18    17   ar
     8    10     9   ar
     9    25    19    1
    10    12    17    1
    11    12    13   ar
    12     8     3    1
    13     9    13   ar
    14     9     4    1
    15    19    20   ar
    16    17    21   ar
    17     3     4   ar
    18     3     2   ar
    19    13    14    1
    20     4     5   ar
    21     5     1   ar
    22     2     7    1
    23     2     1   ar
    24     1     6    1
    25    20    21   ar
    26    20    23    1
    27    21    22    1
