@<TRIPOS>MOLECULE
mol_data/opt/m06hf/geoms/mol2/12138-13-.out
 31 34 0 0 0
SMALL
GASTEIGER

@<TRIPOS>ATOM
      1 C           0.2325    1.7747   -0.0001 C.ar    1  LIG1        0.0926
      2 C           1.5864    1.7469   -0.0004 C.ar    1  LIG1       -0.0233
      3 C           2.0132    3.1205   -0.0002 C.ar    1  LIG1       -0.0144
      4 C           0.8750    3.8624    0.0000 C.ar    1  LIG1        0.1509
      5 O          -0.2086    3.0527    0.0001 O.2     1  LIG1       -0.4615
      6 H          -0.5225    1.0091   -0.0001 H       1  LIG1        0.1029
      7 H           2.2085    0.8688   -0.0006 H       1  LIG1        0.0649
      8 H           3.0212    3.4967   -0.0004 H       1  LIG1        0.0656
      9 C           0.6072    5.2941    0.0003 C.ar    1  LIG1        0.0826
     10 C           1.4647    6.3847    0.0002 C.ar    1  LIG1       -0.0327
     11 C           0.6608    7.5452    0.0005 C.ar    1  LIG1       -0.0325
     12 C          -0.6554    7.1214    0.0008 C.ar    1  LIG1        0.0880
     13 N          -0.6665    5.7587    0.0006 N.ar    1  LIG1       -0.3492
     14 H          -1.5057    5.1942    0.0007 H       1  LIG1        0.1661
     15 H           2.5403    6.3374   -0.0000 H       1  LIG1        0.0640
     16 H           0.9808    8.5729    0.0006 H       1  LIG1        0.0640
     17 C          -1.9021    7.8692    0.0011 C.ar    1  LIG1        0.2194
     18 N          -3.0422    7.1656    0.0013 N.ar    1  LIG1       -0.1237
     19 C          -4.1187    9.1429    0.0018 C.ar    1  LIG1        0.2194
     20 N          -1.8535    9.2057    0.0013 N.ar    1  LIG1       -0.1237
     21 N          -4.1665    7.8059    0.0016 N.ar    1  LIG1       -0.1237
     22 N          -2.9782    9.8458    0.0016 N.ar    1  LIG1       -0.1237
     23 C          -5.3647    9.8929    0.0022 C.ar    1  LIG1        0.0875
     24 C          -6.6806    9.4765    0.0025 C.ar    1  LIG1       -0.0333
     25 C          -7.4777   10.6467    0.0025 C.ar    1  LIG1       -0.0437
     26 C          -6.6180   11.7282    0.0027 C.ar    1  LIG1        0.0023
     27 N          -5.3466   11.2579    0.0024 N.ar    1  LIG1       -0.3582
     28 H          -4.4910   11.7943    0.0023 H       1  LIG1        0.1654
     29 H          -6.8231   12.7848    0.0029 H       1  LIG1        0.0807
     30 H          -7.0058    8.4503    0.0025 H       1  LIG1        0.0640
     31 H          -8.5529   10.6973    0.0025 H       1  LIG1        0.0633
@<TRIPOS>BOND
     1     7     2    1
     2     2     3   ar
     3     2     1   ar
     4     8     3    1
     5     3     4   ar
     6     1     6    1
     7     1     5   ar
     8    15    10    1
     9     4     5   ar
    10     4     9    1
    11    10     9   ar
    12    10    11   ar
    13     9    13   ar
    14    11    16    1
    15    11    12   ar
    16    13    14    1
    17    13    12   ar
    18    12    17    1
    19    17    20   ar
    20    17    18   ar
    21    20    22   ar
    22    18    21   ar
    23    22    19   ar
    24    21    19   ar
    25    19    23    1
    26    23    27   ar
    27    23    24   ar
    28    28    27    1
    29    27    26   ar
    30    30    24    1
    31    25    24   ar
    32    25    31    1
    33    25    26   ar
    34    26    29    1
