@<TRIPOS>MOLECULE
mol_data/opt/m06hf/geoms/mol2/1213-13-4.out
 35 38 0 0 0
SMALL
GASTEIGER

@<TRIPOS>ATOM
      1 C          -0.0815    1.7181    0.5075 C.ar    1  LIG1        0.0926
      2 C           1.2284    1.6945    0.8483 C.ar    1  LIG1       -0.0233
      3 C           1.7128    3.0330    0.6402 C.ar    1  LIG1       -0.0144
      4 C           0.6448    3.7517    0.1973 C.ar    1  LIG1        0.1509
      5 O          -0.4436    2.9589    0.1176 O.2     1  LIG1       -0.4615
      6 H          -0.8542    0.9705    0.4923 H       1  LIG1        0.1029
      7 H           1.7868    0.8427    1.1955 H       1  LIG1        0.0649
      8 H           2.7189    3.3920    0.7759 H       1  LIG1        0.0656
      9 C           0.4693    5.1445   -0.1928 C.ar    1  LIG1        0.0826
     10 C          -0.5173    5.7421   -0.9464 C.ar    1  LIG1       -0.0328
     11 C          -0.1988    7.1234   -1.0334 C.ar    1  LIG1       -0.0343
     12 C           0.9666    7.3243   -0.3268 C.ar    1  LIG1        0.0634
     13 N           1.3646    6.1111    0.1718 N.ar    1  LIG1       -0.3506
     14 H           2.0962    5.9893    0.8550 H       1  LIG1        0.1660
     15 H          -1.3502    5.2276   -1.3941 H       1  LIG1        0.0640
     16 H          -0.7329    7.8883   -1.5709 H       1  LIG1        0.0639
     17 C           1.7365    8.5452   -0.0777 C.ar    1  LIG1        0.0633
     18 C           1.3335    9.7959    0.3368 C.ar    1  LIG1       -0.0344
     19 C           2.4960   10.6066    0.4256 C.ar    1  LIG1       -0.0358
     20 C           3.5758    9.8269    0.0633 C.ar    1  LIG1        0.0469
     21 N           3.0955    8.5829   -0.2400 N.ar    1  LIG1       -0.3530
     22 H           3.6577    7.8085   -0.5566 H       1  LIG1        0.1659
     23 H           0.3174   10.0729    0.5615 H       1  LIG1        0.0639
     24 H           2.5455   11.6482    0.6965 H       1  LIG1        0.0639
     25 C           5.8037    9.6050   -1.0523 C.ar    1  LIG1       -0.0526
     26 C           7.1572    9.9163   -1.1351 C.ar    1  LIG1       -0.0611
     27 C           5.0116   10.1550   -0.0395 C.ar    1  LIG1       -0.0017
     28 C           7.7308   10.7930   -0.2184 C.ar    1  LIG1       -0.0617
     29 H           7.7592    9.4859   -1.9249 H       1  LIG1        0.0618
     30 C           5.5947   11.0314    0.8800 C.ar    1  LIG1       -0.0526
     31 C           6.9436   11.3544    0.7851 C.ar    1  LIG1       -0.0611
     32 H           4.9866   11.4399    1.6770 H       1  LIG1        0.0624
     33 H           8.7821   11.0397   -0.2869 H       1  LIG1        0.0618
     34 H           5.3531    8.9595   -1.7972 H       1  LIG1        0.0624
     35 H           7.3841   12.0343    1.5028 H       1  LIG1        0.0618
@<TRIPOS>BOND
     1    29    26    1
     2    34    25    1
     3    16    11    1
     4    15    10    1
     5    26    25   ar
     6    26    28   ar
     7    25    27   ar
     8    11    10   ar
     9    11    12   ar
    10    10     9   ar
    11    22    21    1
    12    12    17    1
    13    12    13   ar
    14    33    28    1
    15    21    17   ar
    16    21    20   ar
    17    28    31   ar
    18     9    13   ar
    19     9     4    1
    20    17    18   ar
    21    27    20    1
    22    27    30   ar
    23    20    19   ar
    24     5     4   ar
    25     5     1   ar
    26    13    14    1
    27     4     3   ar
    28    18    19   ar
    29    18    23    1
    30    19    24    1
    31     6     1    1
    32     1     2   ar
    33     3     8    1
    34     3     2   ar
    35    31    30   ar
    36    31    35    1
    37     2     7    1
    38    30    32    1
