@<TRIPOS>MOLECULE
mol_data/opt/m06hf/geoms/mol2/1213-13-.out
 25 27 0 0 0
SMALL
GASTEIGER

@<TRIPOS>ATOM
      1 C           0.1787    1.7544    0.2939 C.ar    1  LIG1        0.0926
      2 C           1.5325    1.7464    0.2737 C.ar    1  LIG1       -0.0233
      3 C           1.9307    3.1164    0.0892 C.ar    1  LIG1       -0.0144
      4 C           0.7764    3.8351    0.0224 C.ar    1  LIG1        0.1509
      5 O          -0.2863    3.0132    0.1450 O.2     1  LIG1       -0.4615
      6 H          -0.5613    0.9821    0.4018 H       1  LIG1        0.1029
      7 H           2.1715    0.8857    0.3689 H       1  LIG1        0.0649
      8 H           2.9339    3.4961   -0.0055 H       1  LIG1        0.0656
      9 C           0.4925    5.2540   -0.1453 C.ar    1  LIG1        0.0826
     10 C          -0.6693    5.8966   -0.5130 C.ar    1  LIG1       -0.0328
     11 C          -0.3916    7.2897   -0.5256 C.ar    1  LIG1       -0.0343
     12 C           0.9265    7.4517   -0.1591 C.ar    1  LIG1        0.0634
     13 N           1.4522    6.2056    0.0607 N.ar    1  LIG1       -0.3506
     14 H           2.3480    6.0372    0.4912 H       1  LIG1        0.1660
     15 H          -1.5946    5.4059   -0.7628 H       1  LIG1        0.0640
     16 H          -1.0592    8.0903   -0.7963 H       1  LIG1        0.0639
     17 C           1.7385    8.6602    0.0046 C.ar    1  LIG1        0.0629
     18 C           1.4765    9.8421    0.6585 C.ar    1  LIG1       -0.0350
     19 C           2.6173   10.6780    0.4967 C.ar    1  LIG1       -0.0438
     20 C           3.5354    9.9754   -0.2456 C.ar    1  LIG1        0.0022
     21 N           2.9963    8.7546   -0.5332 N.ar    1  LIG1       -0.3595
     22 H           3.3967    8.0667   -1.1508 H       1  LIG1        0.1654
     23 H           4.5186   10.2454   -0.5890 H       1  LIG1        0.0807
     24 H           0.5743   10.0566    1.2066 H       1  LIG1        0.0639
     25 H           2.7524   11.6717    0.8887 H       1  LIG1        0.0633
@<TRIPOS>BOND
     1    22    21    1
     2    16    11    1
     3    15    10    1
     4    23    20    1
     5    21    20   ar
     6    21    17   ar
     7    11    10   ar
     8    11    12   ar
     9    10     9   ar
    10    20    19   ar
    11    12    17    1
    12    12    13   ar
    13     9     4    1
    14     9    13   ar
    15     8     3    1
    16    17    18   ar
    17     4     3   ar
    18     4     5   ar
    19    13    14    1
    20     3     2   ar
    21     5     1   ar
    22     2     1   ar
    23     2     7    1
    24     1     6    1
    25    19    18   ar
    26    19    25    1
    27    18    24    1
