@<TRIPOS>MOLECULE
mol_data/opt/m06hf/geoms/mol2/1213.out
 17 18 0 0 0
SMALL
GASTEIGER

@<TRIPOS>ATOM
      1 C           0.2103    1.8055   -0.0004 C.ar    1  LIG1        0.0926
      2 C           1.5628    1.7867   -0.0002 C.ar    1  LIG1       -0.0233
      3 C           1.9819    3.1641    0.0002 C.ar    1  LIG1       -0.0144
      4 C           0.8404    3.9012    0.0000 C.ar    1  LIG1        0.1508
      5 O          -0.2389    3.0828   -0.0003 O.2     1  LIG1       -0.4615
      6 H          -0.5411    1.0361   -0.0006 H       1  LIG1        0.1029
      7 H           2.1915    0.9134   -0.0002 H       1  LIG1        0.0649
      8 H           2.9875    3.5470    0.0004 H       1  LIG1        0.0656
      9 C           0.5576    5.3312    0.0002 C.ar    1  LIG1        0.0821
     10 C           1.3874    6.4319    0.0004 C.ar    1  LIG1       -0.0334
     11 C           0.5529    7.5817    0.0001 C.ar    1  LIG1       -0.0437
     12 C          -0.7506    7.1409    0.0006 C.ar    1  LIG1        0.0023
     13 N          -0.7320    5.7791    0.0004 N.ar    1  LIG1       -0.3583
     14 H          -1.5329    5.1674    0.0003 H       1  LIG1        0.1654
     15 H          -1.6779    7.6865    0.0009 H       1  LIG1        0.0807
     16 H           2.4642    6.4069    0.0004 H       1  LIG1        0.0640
     17 H           0.8705    8.6101   -0.0001 H       1  LIG1        0.0633
@<TRIPOS>BOND
     1     6     1    1
     2     1     5   ar
     3     1     2   ar
     4     5     4   ar
     5     7     2    1
     6     2     3   ar
     7    17    11    1
     8     4     3   ar
     9     4     9    1
    10    11    10   ar
    11    11    12   ar
    12     3     8    1
    13     9    13   ar
    14     9    10   ar
    15    14    13    1
    16    13    12   ar
    17    16    10    1
    18    12    15    1
