@<TRIPOS>MOLECULE
mol_data/opt/m06hf/geoms/mol2/121312.out
 24 26 0 0 0
SMALL
GASTEIGER

@<TRIPOS>ATOM
      1 C           0.2365    1.7779   -0.0007 C.ar    1  LIG1        0.0926
      2 C           1.5892    1.7586   -0.0001 C.ar    1  LIG1       -0.0233
      3 C           2.0085    3.1356   -0.0001 C.ar    1  LIG1       -0.0144
      4 C           0.8659    3.8717    0.0000 C.ar    1  LIG1        0.1509
      5 O          -0.2128    3.0541   -0.0003 O.2     1  LIG1       -0.4615
      6 H          -0.5136    1.0077   -0.0011 H       1  LIG1        0.1029
      7 H           2.2177    0.8848    0.0001 H       1  LIG1        0.0649
      8 H           3.0147    3.5181    0.0001 H       1  LIG1        0.0656
      9 C           0.5894    5.3019    0.0003 C.ar    1  LIG1        0.0826
     10 C           1.4315    6.3970    0.0005 C.ar    1  LIG1       -0.0327
     11 C           0.6135    7.5530    0.0003 C.ar    1  LIG1       -0.0327
     12 C          -0.6994    7.1232    0.0007 C.ar    1  LIG1        0.0826
     13 N          -0.6937    5.7606    0.0007 N.ar    1  LIG1       -0.3494
     14 H          -1.5181    5.1773    0.0008 H       1  LIG1        0.1661
     15 H           2.5079    6.3623    0.0005 H       1  LIG1        0.0640
     16 H           0.9389    8.5797    0.0001 H       1  LIG1        0.0640
     17 C          -1.9561    7.8598    0.0010 C.ar    1  LIG1        0.1509
     18 C          -2.2702    9.1822    0.0008 C.ar    1  LIG1       -0.0144
     19 C          -3.7082    9.2450    0.0018 C.ar    1  LIG1       -0.0233
     20 C          -4.1401    7.9630    0.0013 C.ar    1  LIG1        0.0926
     21 O          -3.0860    7.1146    0.0013 O.2     1  LIG1       -0.4615
     22 H          -5.1159    7.5118    0.0015 H       1  LIG1        0.1029
     23 H          -1.5747   10.0039    0.0005 H       1  LIG1        0.0656
     24 H          -4.3231   10.1284    0.0023 H       1  LIG1        0.0649
@<TRIPOS>BOND
     1     6     1    1
     2     1     5   ar
     3     1     2   ar
     4     5     4   ar
     5     3     2   ar
     6     3     4   ar
     7     3     8    1
     8     2     7    1
     9     4     9    1
    10    16    11    1
    11    11    10   ar
    12    11    12   ar
    13     9    10   ar
    14     9    13   ar
    15    15    10    1
    16    23    18    1
    17    13    12   ar
    18    13    14    1
    19    12    17    1
    20    18    17   ar
    21    18    19   ar
    22    17    21   ar
    23    21    20   ar
    24    20    22    1
    25    20    19   ar
    26    19    24    1
