@<TRIPOS>MOLECULE
mol_data/opt/m06hf/geoms/mol2/1213-4.out
 27 29 0 0 0
SMALL
GASTEIGER

@<TRIPOS>ATOM
      1 C           0.1868    1.7433    0.3305 C.ar    1  LIG1        0.0926
      2 C           1.5398    1.7387    0.2825 C.ar    1  LIG1       -0.0233
      3 C           1.9303    3.1077    0.0764 C.ar    1  LIG1       -0.0144
      4 C           0.7730    3.8227    0.0265 C.ar    1  LIG1        0.1509
      5 O          -0.2849    2.9993    0.1795 O.2     1  LIG1       -0.4615
      6 H          -0.5487    0.9701    0.4607 H       1  LIG1        0.1029
      7 H           2.1832    0.8807    0.3725 H       1  LIG1        0.0649
      8 H           2.9301    3.4889   -0.0447 H       1  LIG1        0.0656
      9 C           0.4820    5.2386   -0.1518 C.ar    1  LIG1        0.0825
     10 C          -0.6890    5.8735   -0.5054 C.ar    1  LIG1       -0.0328
     11 C          -0.4170    7.2663   -0.5290 C.ar    1  LIG1       -0.0357
     12 C           0.9104    7.4373   -0.1910 C.ar    1  LIG1        0.0470
     13 N           1.4403    6.1954    0.0267 N.ar    1  LIG1       -0.3518
     14 H           2.3550    6.0293    0.4162 H       1  LIG1        0.1660
     15 H          -1.6168    5.3781   -0.7358 H       1  LIG1        0.0640
     16 H          -1.0968    8.0565   -0.8016 H       1  LIG1        0.0639
     17 C           3.0713    8.6620   -0.4569 C.ar    1  LIG1       -0.0526
     18 C           3.8383    9.8157   -0.3285 C.ar    1  LIG1       -0.0611
     19 C           1.7285    8.6587   -0.0667 C.ar    1  LIG1       -0.0017
     20 C           3.2688   10.9822    0.1748 C.ar    1  LIG1       -0.0617
     21 H           4.8759    9.8073   -0.6357 H       1  LIG1        0.0618
     22 C           1.1635    9.8319    0.4416 C.ar    1  LIG1       -0.0526
     23 C           1.9280   10.9878    0.5540 C.ar    1  LIG1       -0.0611
     24 H           0.1307    9.8221    0.7645 H       1  LIG1        0.0624
     25 H           3.8650   11.8800    0.2705 H       1  LIG1        0.0618
     26 H           3.5052    7.7689   -0.8905 H       1  LIG1        0.0624
     27 H           1.4808   11.8903    0.9500 H       1  LIG1        0.0618
@<TRIPOS>BOND
     1    26    17    1
     2    16    11    1
     3    15    10    1
     4    21    18    1
     5    11    10   ar
     6    11    12   ar
     7    10     9   ar
     8    17    18   ar
     9    17    19   ar
    10    18    20   ar
    11    12    19    1
    12    12    13   ar
    13     9     4    1
    14     9    13   ar
    15    19    22   ar
    16     8     3    1
    17     4     3   ar
    18     4     5   ar
    19    13    14    1
    20     3     2   ar
    21    20    25    1
    22    20    23   ar
    23     5     1   ar
    24     2     1   ar
    25     2     7    1
    26     1     6    1
    27    22    23   ar
    28    22    24    1
    29    23    27    1
