@<TRIPOS>MOLECULE
mol_data/opt/m06hf/geoms/mol2/121312-.out
 24 26 0 0 0
SMALL
GASTEIGER

@<TRIPOS>ATOM
      1 C           0.2314    1.7750   -0.0010 C.ar    1  LIG1        0.0926
      2 C           1.5839    1.7515   -0.0004 C.ar    1  LIG1       -0.0233
      3 C           2.0085    3.1268    0.0001 C.ar    1  LIG1       -0.0144
      4 C           0.8692    3.8676   -0.0000 C.ar    1  LIG1        0.1509
      5 O          -0.2131    3.0537   -0.0006 O.2     1  LIG1       -0.4615
      6 H          -0.5222    1.0078   -0.0016 H       1  LIG1        0.1029
      7 H           2.2098    0.8757   -0.0004 H       1  LIG1        0.0649
      8 H           3.0157    3.5057    0.0006 H       1  LIG1        0.0656
      9 C           0.5931    5.2976    0.0004 C.ar    1  LIG1        0.0826
     10 C           1.4290    6.3965    0.0009 C.ar    1  LIG1       -0.0327
     11 C           0.6033    7.5481    0.0004 C.ar    1  LIG1       -0.0327
     12 C          -0.7067    7.1123    0.0008 C.ar    1  LIG1        0.0826
     13 N          -0.6942    5.7486    0.0006 N.ar    1  LIG1       -0.3494
     14 H          -1.4984    5.1399    0.0005 H       1  LIG1        0.1661
     15 H           2.5056    6.3681    0.0010 H       1  LIG1        0.0640
     16 H           0.9121    8.5792    0.0002 H       1  LIG1        0.0640
     17 C          -1.9451    7.8783    0.0011 C.ar    1  LIG1        0.1509
     18 C          -3.2631    7.5384    0.0023 C.ar    1  LIG1       -0.0144
     19 C          -3.9900    8.7798    0.0017 C.ar    1  LIG1       -0.0233
     20 C          -3.0545    9.7575    0.0008 C.ar    1  LIG1        0.0926
     21 O          -1.8152    9.2214    0.0002 O.2     1  LIG1       -0.4615
     22 H          -3.1098   10.8311    0.0002 H       1  LIG1        0.1029
     23 H          -3.6772    6.5440    0.0032 H       1  LIG1        0.0656
     24 H          -5.0581    8.9121    0.0021 H       1  LIG1        0.0649
@<TRIPOS>BOND
     1     6     1    1
     2     1     5   ar
     3     1     2   ar
     4     5     4   ar
     5     2     7    1
     6     2     3   ar
     7     4     3   ar
     8     4     9    1
     9     3     8    1
    10    21    20   ar
    11    21    17   ar
    12    22    20    1
    13    16    11    1
    14    11    12   ar
    15    11    10   ar
    16     9    13   ar
    17     9    10   ar
    18    14    13    1
    19    13    12   ar
    20    20    19   ar
    21    12    17    1
    22    10    15    1
    23    17    18   ar
    24    19    24    1
    25    19    18   ar
    26    18    23    1
