@<TRIPOS>MOLECULE
mol_data/opt/m06hf/geoms/mol2/1213-4-5.out
 34 37 0 0 0
SMALL
GASTEIGER

@<TRIPOS>ATOM
      1 C           0.0059    1.7025    0.4483 C.ar    1  LIG1        0.0926
      2 C           1.3537    1.6574    0.5697 C.ar    1  LIG1       -0.0233
      3 C           1.8145    3.0005    0.3398 C.ar    1  LIG1       -0.0144
      4 C           0.6978    3.7436    0.1071 C.ar    1  LIG1        0.1509
      5 O          -0.3989    2.9605    0.1714 O.2     1  LIG1       -0.4615
      6 H          -0.7682    0.9605    0.5285 H       1  LIG1        0.1029
      7 H           1.9522    0.7897    0.7861 H       1  LIG1        0.0649
      8 H           2.8345    3.3458    0.3269 H       1  LIG1        0.0656
      9 C           0.4743    5.1531   -0.1844 C.ar    1  LIG1        0.0825
     10 C          -0.6412    5.7934   -0.6807 C.ar    1  LIG1       -0.0328
     11 C          -0.3278    7.1746   -0.7605 C.ar    1  LIG1       -0.0357
     12 C           0.9686    7.3341   -0.3131 C.ar    1  LIG1        0.0470
     13 N           1.4410    6.0955    0.0244 N.ar    1  LIG1       -0.3518
     14 H           2.3130    5.9316    0.5026 H       1  LIG1        0.1660
     15 H          -1.5591    5.3071   -0.9637 H       1  LIG1        0.0640
     16 H          -0.9567    7.9629   -1.1393 H       1  LIG1        0.0639
     17 C           1.2162    9.7615    0.1740 C.ar    1  LIG1       -0.0520
     18 C           1.9875   10.9103    0.2820 C.ar    1  LIG1       -0.0529
     19 C           1.8006    8.5438   -0.1866 C.ar    1  LIG1       -0.0017
     20 C           3.3668   10.8653    0.0543 C.ar    1  LIG1       -0.0113
     21 H           1.5185   11.8518    0.5399 H       1  LIG1        0.0624
     22 C           3.1780    8.5011   -0.4254 C.ar    1  LIG1       -0.0520
     23 C           3.9540    9.6450   -0.2909 C.ar    1  LIG1       -0.0529
     24 H           3.6419    7.5728   -0.7366 H       1  LIG1        0.0624
     25 H           0.1545    9.7975    0.3800 H       1  LIG1        0.0624
     26 H           5.0238    9.5974   -0.4480 H       1  LIG1        0.0624
     27 C           4.2029   12.0812    0.1681 C.ar    1  LIG1        0.0193
     28 C           5.2536   12.4516   -0.6209 C.ar    1  LIG1       -0.0469
     29 C           5.8414   13.6953   -0.2188 C.ar    1  LIG1       -0.0541
     30 C           5.2202   14.2356    0.8635 C.ar    1  LIG1       -0.0237
     31 S           3.9249   13.2469    1.4148 S.2     1  LIG1       -0.0967
     32 H           5.4513   15.1579    1.3711 H       1  LIG1        0.0693
     33 H           5.5759   11.8753   -1.4759 H       1  LIG1        0.0629
     34 H           6.6766   14.1593   -0.7217 H       1  LIG1        0.0623
@<TRIPOS>BOND
     1    33    28    1
     2    16    11    1
     3    15    10    1
     4    11    10   ar
     5    11    12   ar
     6    24    22    1
     7    34    29    1
     8    10     9   ar
     9    28    29   ar
    10    28    27   ar
    11    26    23    1
    12    22    23   ar
    13    22    19   ar
    14    12    19    1
    15    12    13   ar
    16    23    20   ar
    17    29    30   ar
    18    19    17   ar
    19     9    13   ar
    20     9     4    1
    21    13    14    1
    22    20    27    1
    23    20    18   ar
    24     4     5   ar
    25     4     3   ar
    26    27    31   ar
    27     5     1   ar
    28    17    18   ar
    29    17    25    1
    30    18    21    1
    31     8     3    1
    32     3     2   ar
    33     1     6    1
    34     1     2   ar
    35     2     7    1
    36    30    32    1
    37    30    31   ar
