@<TRIPOS>MOLECULE
mol_data/opt/m06hf/geoms/mol2/1213135.out
 32 35 0 0 0
SMALL
GASTEIGER

@<TRIPOS>ATOM
      1 C           0.4867    1.8430   -0.8260 C.ar    1  LIG1        0.0926
      2 C           1.7766    1.7888   -0.4214 C.ar    1  LIG1       -0.0233
      3 C           2.0985    3.1050    0.0643 C.ar    1  LIG1       -0.0144
      4 C           0.9689    3.8445   -0.0873 C.ar    1  LIG1        0.1509
      5 O          -0.0142    3.0848   -0.6267 O.2     1  LIG1       -0.4615
      6 H          -0.1852    1.1212   -1.2546 H       1  LIG1        0.1029
      7 H           2.4243    0.9303   -0.4600 H       1  LIG1        0.0649
      8 H           3.0369    3.4486    0.4634 H       1  LIG1        0.0656
      9 C           0.6245    5.2308    0.1983 C.ar    1  LIG1        0.0826
     10 C           1.3454    6.2548    0.7764 C.ar    1  LIG1       -0.0328
     11 C           0.5062    7.3989    0.7916 C.ar    1  LIG1       -0.0343
     12 C          -0.6958    7.0379    0.2198 C.ar    1  LIG1        0.0634
     13 N          -0.6073    5.7181   -0.1299 N.ar    1  LIG1       -0.3506
     14 H          -1.2997    5.1967   -0.6467 H       1  LIG1        0.1660
     15 H           2.3505    6.1781    1.1550 H       1  LIG1        0.0640
     16 H           0.7296    8.3715    1.1962 H       1  LIG1        0.0639
     17 C          -1.9114    7.8187   -0.0176 C.ar    1  LIG1        0.0633
     18 C          -2.0799    9.0872   -0.5303 C.ar    1  LIG1       -0.0344
     19 C          -3.4730    9.3596   -0.5381 C.ar    1  LIG1       -0.0353
     20 C          -4.1134    8.2442   -0.0391 C.ar    1  LIG1        0.0536
     21 N          -3.1523    7.3216    0.2733 N.ar    1  LIG1       -0.3526
     22 H          -3.3293    6.4228    0.6957 H       1  LIG1        0.1660
     23 H          -1.2823    9.7255   -0.8706 H       1  LIG1        0.0639
     24 H          -3.9646   10.2646   -0.8529 H       1  LIG1        0.0639
     25 C          -5.5389    7.9801    0.1661 C.ar    1  LIG1        0.0355
     26 C          -6.5800    8.3593   -0.6293 C.ar    1  LIG1       -0.0455
     27 C          -7.8516    7.9407   -0.1148 C.ar    1  LIG1       -0.0541
     28 C          -7.7416    7.2463    1.0485 C.ar    1  LIG1       -0.0237
     29 S          -6.1019    7.1178    1.5600 S.2     1  LIG1       -0.0952
     30 H          -8.5288    6.8071    1.6392 H       1  LIG1        0.0693
     31 H          -6.4394    8.8923   -1.5579 H       1  LIG1        0.0629
     32 H          -8.7944    8.1396   -0.6022 H       1  LIG1        0.0623
@<TRIPOS>BOND
     1    31    26    1
     2     6     1    1
     3    23    18    1
     4    24    19    1
     5     1     5   ar
     6     1     2   ar
     7    14    13    1
     8    26    27   ar
     9    26    25   ar
    10     5     4   ar
    11    32    27    1
    12    19    18   ar
    13    19    20   ar
    14    18    17   ar
    15     7     2    1
    16     2     3   ar
    17    13     9   ar
    18    13    12   ar
    19    27    28   ar
    20     4     3   ar
    21     4     9    1
    22    20    25    1
    23    20    21   ar
    24    17    12    1
    25    17    21   ar
    26     3     8    1
    27    25    29   ar
    28     9    10   ar
    29    12    11   ar
    30    21    22    1
    31    10    11   ar
    32    10    15    1
    33    11    16    1
    34    28    29   ar
    35    28    30    1
