@<TRIPOS>MOLECULE
mol_data/opt/m06hf/geoms/mol2/1213-13-5.out
 32 35 0 0 0
SMALL
GASTEIGER

@<TRIPOS>ATOM
      1 C          -0.0139    1.6957    0.0847 C.ar    1  LIG1        0.0926
      2 C           1.3276    1.6521    0.2630 C.ar    1  LIG1       -0.0233
      3 C           1.7784    3.0162    0.1880 C.ar    1  LIG1       -0.0144
      4 C           0.6621    3.7672   -0.0226 C.ar    1  LIG1        0.1509
      5 O          -0.4247    2.9708   -0.0851 O.2     1  LIG1       -0.4615
      6 H          -0.7796    0.9415    0.0548 H       1  LIG1        0.1029
      7 H           1.9268    0.7722    0.4203 H       1  LIG1        0.0649
      8 H           2.7926    3.3721    0.2555 H       1  LIG1        0.0656
      9 C           0.4381    5.1963   -0.1900 C.ar    1  LIG1        0.0826
     10 C          -0.6498    5.8781   -0.6907 C.ar    1  LIG1       -0.0328
     11 C          -0.3348    7.2622   -0.6447 C.ar    1  LIG1       -0.0343
     12 C           0.9306    7.3797   -0.1126 C.ar    1  LIG1        0.0634
     13 N           1.3899    6.1164    0.1526 N.ar    1  LIG1       -0.3506
     14 H           2.2234    5.9151    0.6827 H       1  LIG1        0.1660
     15 H          -1.5486    5.4183   -1.0638 H       1  LIG1        0.0640
     16 H          -0.9394    8.0850   -0.9863 H       1  LIG1        0.0639
     17 C           1.7463    8.5620    0.1654 C.ar    1  LIG1        0.0633
     18 C           1.4116    9.7787    0.7183 C.ar    1  LIG1       -0.0344
     19 C           2.5892   10.5727    0.7403 C.ar    1  LIG1       -0.0353
     20 C           3.6080    9.8127    0.2054 C.ar    1  LIG1        0.0536
     21 N           3.0829    8.5947   -0.1324 N.ar    1  LIG1       -0.3526
     22 H           3.5633    7.9079   -0.6939 H       1  LIG1        0.1660
     23 H           0.4357   10.0398    1.0914 H       1  LIG1        0.0639
     24 H           2.6996   11.5681    1.1368 H       1  LIG1        0.0639
     25 C           5.0251   10.1079   -0.0135 C.ar    1  LIG1        0.0355
     26 C           6.0915    9.2656    0.1254 C.ar    1  LIG1       -0.0455
     27 C           7.3395    9.8986   -0.1833 C.ar    1  LIG1       -0.0541
     28 C           7.1847   11.2022   -0.5399 C.ar    1  LIG1       -0.0237
     29 S           5.5296   11.6755   -0.5331 S.2     1  LIG1       -0.0952
     30 H           7.9502   11.9122   -0.8075 H       1  LIG1        0.0693
     31 H           5.9954    8.2466    0.4719 H       1  LIG1        0.0629
     32 H           8.2985    9.4061   -0.1235 H       1  LIG1        0.0623
@<TRIPOS>BOND
     1    15    10    1
     2    16    11    1
     3    30    28    1
     4    22    21    1
     5    10    11   ar
     6    10     9   ar
     7    11    12   ar
     8    28    29   ar
     9    28    27   ar
    10    29    25   ar
    11     9     4    1
    12     9    13   ar
    13    27    32    1
    14    27    26   ar
    15    21    17   ar
    16    21    20   ar
    17    12    13   ar
    18    12    17    1
    19     5     4   ar
    20     5     1   ar
    21     4     3   ar
    22    25    26   ar
    23    25    20    1
    24     6     1    1
    25     1     2   ar
    26    26    31    1
    27    13    14    1
    28    17    18   ar
    29     3     8    1
    30     3     2   ar
    31    20    19   ar
    32     2     7    1
    33    18    19   ar
    34    18    23    1
    35    19    24    1
