@<TRIPOS>MOLECULE
mol_data/opt/m06hf/geoms/mol2/1213-.out
 17 18 0 0 0
SMALL
GASTEIGER

@<TRIPOS>ATOM
      1 C           0.2201    1.7957   -0.0000 C.ar    1  LIG1        0.0926
      2 C           1.5734    1.7914    0.0003 C.ar    1  LIG1       -0.0233
      3 C           1.9714    3.1741    0.0002 C.ar    1  LIG1       -0.0144
      4 C           0.8169    3.8955   -0.0001 C.ar    1  LIG1        0.1508
      5 O          -0.2451    3.0636   -0.0003 O.2     1  LIG1       -0.4615
      6 H          -0.5203    1.0161   -0.0001 H       1  LIG1        0.1029
      7 H           2.2132    0.9262    0.0005 H       1  LIG1        0.0649
      8 H           2.9778    3.5581    0.0005 H       1  LIG1        0.0656
      9 C           0.5187    5.3220   -0.0004 C.ar    1  LIG1        0.0821
     10 C          -0.6943    5.9743   -0.0005 C.ar    1  LIG1       -0.0334
     11 C          -0.4189    7.3694   -0.0004 C.ar    1  LIG1       -0.0437
     12 C           0.9479    7.5153   -0.0010 C.ar    1  LIG1        0.0023
     13 N           1.5042    6.2696   -0.0007 N.ar    1  LIG1       -0.3583
     14 H           2.4913    6.0726   -0.0008 H       1  LIG1        0.1654
     15 H           1.5626    8.3983   -0.0013 H       1  LIG1        0.0807
     16 H          -1.6559    5.4903   -0.0004 H       1  LIG1        0.0640
     17 H          -1.1381    8.1710   -0.0002 H       1  LIG1        0.0633
@<TRIPOS>BOND
     1    15    12    1
     2    12    13   ar
     3    12    11   ar
     4    14    13    1
     5    13     9   ar
     6    10    16    1
     7    10     9   ar
     8    10    11   ar
     9     9     4    1
    10    11    17    1
    11     5     4   ar
    12     5     1   ar
    13     4     3   ar
    14     6     1    1
    15     1     2   ar
    16     3     2   ar
    17     3     8    1
    18     2     7    1
