@<TRIPOS>MOLECULE
mol_data/opt/m06hf/geoms/mol2/12135-.out
 24 26 0 0 0
SMALL
GASTEIGER

@<TRIPOS>ATOM
      1 C           0.2799    1.7473   -0.0006 C.ar    1  LIG1        0.0926
      2 C           1.6326    1.7393   -0.0006 C.ar    1  LIG1       -0.0233
      3 C           2.0413    3.1194   -0.0003 C.ar    1  LIG1       -0.0144
      4 C           0.8935    3.8469   -0.0002 C.ar    1  LIG1        0.1509
      5 O          -0.1793    3.0208   -0.0004 O.2     1  LIG1       -0.4615
      6 H          -0.4648    0.9715   -0.0007 H       1  LIG1        0.1029
      7 H           2.2685    0.8708   -0.0008 H       1  LIG1        0.0649
      8 H           3.0442    3.5098   -0.0001 H       1  LIG1        0.0656
      9 C           0.6006    5.2736    0.0002 C.ar    1  LIG1        0.0825
     10 C           1.4228    6.3822    0.0006 C.ar    1  LIG1       -0.0328
     11 C           0.5811    7.5211    0.0010 C.ar    1  LIG1       -0.0352
     12 C          -0.7274    7.0736    0.0007 C.ar    1  LIG1        0.0536
     13 N          -0.6911    5.7092    0.0002 N.ar    1  LIG1       -0.3514
     14 H          -1.4853    5.0878   -0.0004 H       1  LIG1        0.1660
     15 H           2.4997    6.3690    0.0008 H       1  LIG1        0.0640
     16 H           0.8915    8.5529    0.0016 H       1  LIG1        0.0639
     17 C          -1.9890    7.8136    0.0010 C.ar    1  LIG1        0.0355
     18 C          -3.2673    7.3315    0.0025 C.ar    1  LIG1       -0.0455
     19 C          -4.2547    8.3711    0.0025 C.ar    1  LIG1       -0.0541
     20 C          -3.7030    9.6116    0.0011 C.ar    1  LIG1       -0.0237
     21 S          -1.9802    9.5440   -0.0003 S.2     1  LIG1       -0.0952
     22 H          -4.2041   10.5657    0.0008 H       1  LIG1        0.0693
     23 H          -3.5165    6.2801    0.0038 H       1  LIG1        0.0629
     24 H          -5.3187    8.1890    0.0036 H       1  LIG1        0.0623
@<TRIPOS>BOND
     1     7     2    1
     2     6     1    1
     3     2     1   ar
     4     2     3   ar
     5     1     5   ar
     6    14    13    1
     7     5     4   ar
     8    21    17   ar
     9    21    20   ar
    10     3     4   ar
    11     3     8    1
    12     4     9    1
    13     9    13   ar
    14     9    10   ar
    15    13    12   ar
    16    10    15    1
    17    10    11   ar
    18    12    17    1
    19    12    11   ar
    20    22    20    1
    21    17    18   ar
    22    11    16    1
    23    20    19   ar
    24    18    19   ar
    25    18    23    1
    26    19    24    1
