@<TRIPOS>MOLECULE
mol_data/opt/m06hf/geoms/mol2/12138-.out
 23 25 0 0 0
SMALL
GASTEIGER

@<TRIPOS>ATOM
      1 C           0.2172    1.7898   -0.0006 C.ar    1  LIG1        0.0926
      2 C           1.5705    1.7673    0.0000 C.ar    1  LIG1       -0.0233
      3 C           1.9920    3.1429   -0.0001 C.ar    1  LIG1       -0.0144
      4 C           0.8502    3.8797   -0.0000 C.ar    1  LIG1        0.1509
      5 O          -0.2298    3.0653   -0.0003 O.2     1  LIG1       -0.4615
      6 H          -0.5344    1.0209   -0.0009 H       1  LIG1        0.1029
      7 H           2.1973    0.8924    0.0002 H       1  LIG1        0.0649
      8 H           2.9990    3.5237    0.0001 H       1  LIG1        0.0656
      9 C           0.5768    5.3109    0.0002 C.ar    1  LIG1        0.0826
     10 C           1.4307    6.4051    0.0004 C.ar    1  LIG1       -0.0327
     11 C           0.6232    7.5618    0.0002 C.ar    1  LIG1       -0.0325
     12 C          -0.6919    7.1334    0.0007 C.ar    1  LIG1        0.0880
     13 N          -0.6983    5.7698    0.0004 N.ar    1  LIG1       -0.3492
     14 H          -1.5343    5.2001    0.0005 H       1  LIG1        0.1661
     15 H           2.5066    6.3617    0.0004 H       1  LIG1        0.0640
     16 H           0.9392    8.5912    0.0000 H       1  LIG1        0.0640
     17 C          -1.9394    7.8773    0.0011 C.ar    1  LIG1        0.2193
     18 N          -3.0757    7.1727    0.0014 N.ar    1  LIG1       -0.1243
     19 C          -4.1380    9.1528    0.0018 C.ar    1  LIG1        0.1605
     20 N          -1.8850    9.2170    0.0011 N.ar    1  LIG1       -0.1243
     21 N          -4.1994    7.8255    0.0017 N.ar    1  LIG1       -0.1338
     22 N          -3.0084    9.8621    0.0015 N.ar    1  LIG1       -0.1338
     23 H          -5.0696    9.6978    0.0019 H       1  LIG1        0.1085
@<TRIPOS>BOND
     1     6     1    1
     2     1     5   ar
     3     1     2   ar
     4     5     4   ar
     5     3     4   ar
     6     3     2   ar
     7     3     8    1
     8     4     9    1
     9     2     7    1
    10    16    11    1
    11    11    10   ar
    12    11    12   ar
    13     9    10   ar
    14     9    13   ar
    15    15    10    1
    16    13    14    1
    17    13    12   ar
    18    12    17    1
    19    17    20   ar
    20    17    18   ar
    21    20    22   ar
    22    18    21   ar
    23    22    19   ar
    24    21    19   ar
    25    19    23    1
