@<TRIPOS>MOLECULE
mol_data/opt/m06hf/geoms/mol2/1213-8.out
 23 25 0 0 0
SMALL
GASTEIGER

@<TRIPOS>ATOM
      1 C           0.2173    1.7713   -0.0002 C.ar    1  LIG1        0.0926
      2 C           1.5713    1.7678    0.0007 C.ar    1  LIG1       -0.0233
      3 C           1.9689    3.1496    0.0001 C.ar    1  LIG1       -0.0144
      4 C           0.8133    3.8682   -0.0001 C.ar    1  LIG1        0.1509
      5 O          -0.2492    3.0370   -0.0003 O.2     1  LIG1       -0.4615
      6 H          -0.5214    0.9901   -0.0004 H       1  LIG1        0.1029
      7 H           2.2120    0.9033    0.0013 H       1  LIG1        0.0649
      8 H           2.9745    3.5357    0.0002 H       1  LIG1        0.0656
      9 C           0.5103    5.2931   -0.0004 C.ar    1  LIG1        0.0826
     10 C          -0.7219    5.9301   -0.0004 C.ar    1  LIG1       -0.0327
     11 C          -0.4732    7.3194   -0.0003 C.ar    1  LIG1       -0.0325
     12 C           0.8998    7.4798   -0.0010 C.ar    1  LIG1        0.0880
     13 N           1.4780    6.2436   -0.0008 N.ar    1  LIG1       -0.3492
     14 H           2.4788    6.1040   -0.0011 H       1  LIG1        0.1661
     15 H          -1.6750    5.4305   -0.0002 H       1  LIG1        0.0640
     16 H          -1.1911    8.1221   -0.0001 H       1  LIG1        0.0640
     17 C           1.7246    8.6746   -0.0016 C.ar    1  LIG1        0.2193
     18 N           3.0510    8.5068   -0.0020 N.ar    1  LIG1       -0.1243
     19 C           3.1946   10.7489   -0.0025 C.ar    1  LIG1        0.1605
     20 N           1.1185    9.8704   -0.0015 N.ar    1  LIG1       -0.1243
     21 N           3.8020    9.5676   -0.0024 N.ar    1  LIG1       -0.1338
     22 N           1.8717   10.9237   -0.0020 N.ar    1  LIG1       -0.1338
     23 H           3.8151   11.6317   -0.0027 H       1  LIG1        0.1085
@<TRIPOS>BOND
     1    23    19    1
     2    19    21   ar
     3    19    22   ar
     4    21    18   ar
     5    18    17   ar
     6    22    20   ar
     7    17    20   ar
     8    17    12    1
     9    14    13    1
    10    12    13   ar
    11    12    11   ar
    12    13     9   ar
    13    10     9   ar
    14    10    11   ar
    15    10    15    1
    16     6     1    1
    17     9     4    1
    18     5     1   ar
    19     5     4   ar
    20    11    16    1
    21     1     2   ar
    22     4     3   ar
    23     3     8    1
    24     3     2   ar
    25     2     7    1
