@<TRIPOS>MOLECULE
mol_data/opt/m06hf/geoms/mol2/12131313-.out
 33 36 0 0 0
SMALL
GASTEIGER

@<TRIPOS>ATOM
      1 C           0.5486    1.8620   -0.9696 C.ar    1  LIG1        0.0926
      2 C           1.8133    1.7871   -0.4942 C.ar    1  LIG1       -0.0233
      3 C           2.1104    3.0830    0.0575 C.ar    1  LIG1       -0.0144
      4 C           0.9938    3.8337   -0.1326 C.ar    1  LIG1        0.1509
      5 O           0.0415    3.0985   -0.7546 O.2     1  LIG1       -0.4615
      6 H          -0.1000    1.1595   -1.4613 H       1  LIG1        0.1029
      7 H           2.4593    0.9270   -0.5261 H       1  LIG1        0.0649
      8 H           3.0241    3.4063    0.5249 H       1  LIG1        0.0656
      9 C           0.6370    5.2111    0.1789 C.ar    1  LIG1        0.0826
     10 C           1.3426    6.2277    0.7889 C.ar    1  LIG1       -0.0328
     11 C           0.4936    7.3644    0.8195 C.ar    1  LIG1       -0.0343
     12 C          -0.6983    7.0072    0.2242 C.ar    1  LIG1        0.0634
     13 N          -0.5945    5.6970   -0.1544 N.ar    1  LIG1       -0.3506
     14 H          -1.2771    5.1820   -0.6897 H       1  LIG1        0.1660
     15 H           2.3444    6.1506    1.1762 H       1  LIG1        0.0640
     16 H           0.7041    8.3297    1.2472 H       1  LIG1        0.0639
     17 C          -1.9161    7.7845   -0.0149 C.ar    1  LIG1        0.0634
     18 C          -2.0859    9.0572   -0.5148 C.ar    1  LIG1       -0.0343
     19 C          -3.4813    9.3243   -0.5295 C.ar    1  LIG1       -0.0343
     20 C          -4.1204    8.2002   -0.0473 C.ar    1  LIG1        0.0633
     21 N          -3.1596    7.2788    0.2555 N.ar    1  LIG1       -0.3519
     22 H          -3.3480    6.3747    0.6602 H       1  LIG1        0.1660
     23 H          -1.2881    9.7035   -0.8398 H       1  LIG1        0.0639
     24 H          -3.9675   10.2382   -0.8279 H       1  LIG1        0.0639
     25 C          -5.5401    7.9082    0.1580 C.ar    1  LIG1        0.0629
     26 C          -6.1954    7.2404    1.1707 C.ar    1  LIG1       -0.0350
     27 C          -7.5829    7.2508    0.8532 C.ar    1  LIG1       -0.0438
     28 C          -7.7233    7.9264   -0.3352 C.ar    1  LIG1        0.0022
     29 N          -6.4817    8.3162   -0.7441 N.ar    1  LIG1       -0.3595
     30 H          -6.2597    8.7844   -1.6079 H       1  LIG1        0.1654
     31 H          -8.6005    8.1550   -0.9150 H       1  LIG1        0.0807
     32 H          -5.7322    6.8341    2.0550 H       1  LIG1        0.0639
     33 H          -8.3830    6.8249    1.4344 H       1  LIG1        0.0633
@<TRIPOS>BOND
     1    30    29    1
     2     6     1    1
     3     1     5   ar
     4     1     2   ar
     5    31    28    1
     6    23    18    1
     7    24    19    1
     8     5     4   ar
     9    29    28   ar
    10    29    25   ar
    11    14    13    1
    12    19    18   ar
    13    19    20   ar
    14     7     2    1
    15    18    17   ar
    16     2     3   ar
    17    28    27   ar
    18    13     9   ar
    19    13    12   ar
    20     4     3   ar
    21     4     9    1
    22    20    25    1
    23    20    21   ar
    24    17    12    1
    25    17    21   ar
    26     3     8    1
    27    25    26   ar
    28     9    10   ar
    29    12    11   ar
    30    21    22    1
    31    10    11   ar
    32    10    15    1
    33    11    16    1
    34    27    26   ar
    35    27    33    1
    36    26    32    1
