@<TRIPOS>MOLECULE
mol_data/opt/m06hf/geoms/mol2/1213-125-.out
 31 34 0 0 0
SMALL
GASTEIGER

@<TRIPOS>ATOM
      1 C           0.2615    1.6595    0.0003 C.ar    1  LIG1        0.0926
      2 C           1.6151    1.6785    0.0006 C.ar    1  LIG1       -0.0233
      3 C           1.9893    3.0671    0.0001 C.ar    1  LIG1       -0.0144
      4 C           0.8219    3.7685   -0.0001 C.ar    1  LIG1        0.1509
      5 O          -0.2258    2.9190    0.0001 O.2     1  LIG1       -0.4615
      6 H          -0.4660    0.8678    0.0005 H       1  LIG1        0.1029
      7 H           2.2707    0.8252    0.0010 H       1  LIG1        0.0649
      8 H           2.9886    3.4679    0.0001 H       1  LIG1        0.0656
      9 C           0.5014    5.1885   -0.0005 C.ar    1  LIG1        0.0826
     10 C          -0.7249    5.8214   -0.0006 C.ar    1  LIG1       -0.0327
     11 C          -0.4764    7.2163   -0.0012 C.ar    1  LIG1       -0.0327
     12 C           0.8929    7.3874   -0.0012 C.ar    1  LIG1        0.0826
     13 N           1.4708    6.1498   -0.0008 N.ar    1  LIG1       -0.3494
     14 H           2.4620    5.9710   -0.0006 H       1  LIG1        0.1661
     15 H          -1.6789    5.3230   -0.0004 H       1  LIG1        0.0640
     16 H          -1.1995    8.0135   -0.0015 H       1  LIG1        0.0640
     17 C           1.6808    8.6091   -0.0016 C.ar    1  LIG1        0.1518
     18 C           3.0178    8.8698   -0.0021 C.ar    1  LIG1       -0.0138
     19 C           3.1437   10.2983   -0.0023 C.ar    1  LIG1       -0.0147
     20 C           1.8748   10.7888   -0.0020 C.ar    1  LIG1        0.1423
     21 O           0.9870    9.7675   -0.0015 O.2     1  LIG1       -0.4528
     22 H           3.8200    8.1514   -0.0024 H       1  LIG1        0.0656
     23 H           4.0539   10.8745   -0.0027 H       1  LIG1        0.0656
     24 C           1.3155   12.1346   -0.0022 C.ar    1  LIG1        0.0544
     25 C          -0.0056   12.4762   -0.0019 C.ar    1  LIG1       -0.0440
     26 C          -0.2028   13.8958   -0.0025 C.ar    1  LIG1       -0.0540
     27 C           0.9682   14.5845   -0.0031 C.ar    1  LIG1       -0.0236
     28 S           2.3341   13.5312   -0.0025 S.2     1  LIG1       -0.0936
     29 H           1.1152   15.6521   -0.0037 H       1  LIG1        0.0693
     30 H          -0.7977   11.7426   -0.0016 H       1  LIG1        0.0630
     31 H          -1.1730   14.3689   -0.0025 H       1  LIG1        0.0623
@<TRIPOS>BOND
     1    29    27    1
     2    27    28   ar
     3    27    26   ar
     4    23    19    1
     5    28    24   ar
     6    31    26    1
     7    26    25   ar
     8    22    18    1
     9    19    18   ar
    10    19    20   ar
    11    24    20    1
    12    24    25   ar
    13    18    17   ar
    14    20    21   ar
    15    25    30    1
    16    17    21   ar
    17    17    12    1
    18    16    11    1
    19    11    12   ar
    20    11    10   ar
    21    12    13   ar
    22    13    14    1
    23    13     9   ar
    24    10     9   ar
    25    10    15    1
    26     9     4    1
    27     4     5   ar
    28     4     3   ar
    29     5     1   ar
    30     8     3    1
    31     3     2   ar
    32     1     6    1
    33     1     2   ar
    34     2     7    1
