@<TRIPOS>MOLECULE
mol_data/opt/m06hf/geoms/mol2/121313-8.out
 31 34 0 0 0
SMALL
GASTEIGER

@<TRIPOS>ATOM
      1 C           0.2674    1.7393   -0.0032 C.ar    1  LIG1        0.0926
      2 C           1.6204    1.7184   -0.0018 C.ar    1  LIG1       -0.0233
      3 C           2.0419    3.0946   -0.0006 C.ar    1  LIG1       -0.0144
      4 C           0.9012    3.8326   -0.0004 C.ar    1  LIG1        0.1509
      5 O          -0.1796    3.0169   -0.0020 O.2     1  LIG1       -0.4615
      6 H          -0.4842    0.9701   -0.0045 H       1  LIG1        0.1029
      7 H           2.2487    0.8446   -0.0021 H       1  LIG1        0.0649
      8 H           3.0490    3.4740    0.0004 H       1  LIG1        0.0656
      9 C           0.6213    5.2618    0.0009 C.ar    1  LIG1        0.0826
     10 C           1.4543    6.3622    0.0024 C.ar    1  LIG1       -0.0328
     11 C           0.6245    7.5100    0.0030 C.ar    1  LIG1       -0.0343
     12 C          -0.6881    7.0732    0.0020 C.ar    1  LIG1        0.0634
     13 N          -0.6657    5.7102    0.0007 N.ar    1  LIG1       -0.3506
     14 H          -1.4681    5.0990   -0.0006 H       1  LIG1        0.1660
     15 H           2.5306    6.3384    0.0031 H       1  LIG1        0.0640
     16 H           0.9551    8.5355    0.0043 H       1  LIG1        0.0639
     17 C          -1.9444    7.8148    0.0022 C.ar    1  LIG1        0.0634
     18 C          -3.2630    7.3729    0.0036 C.ar    1  LIG1       -0.0343
     19 C          -4.0928    8.5145    0.0036 C.ar    1  LIG1       -0.0326
     20 C          -3.2570    9.6142    0.0014 C.ar    1  LIG1        0.0880
     21 N          -1.9660    9.1698    0.0009 N.ar    1  LIG1       -0.3505
     22 H          -1.1694    9.7911   -0.0007 H       1  LIG1        0.1660
     23 H          -3.5897    6.3465    0.0051 H       1  LIG1        0.0639
     24 H          -5.1687    8.5519    0.0047 H       1  LIG1        0.0640
     25 C          -3.5407   11.0371    0.0000 C.ar    1  LIG1        0.2193
     26 N          -2.4934   11.8688   -0.0017 N.ar    1  LIG1       -0.1243
     27 C          -3.9957   13.5385   -0.0022 C.ar    1  LIG1        0.1605
     28 N          -4.8197   11.4396    0.0007 N.ar    1  LIG1       -0.1243
     29 N          -2.7266   13.1473   -0.0028 N.ar    1  LIG1       -0.1338
     30 N          -5.0456   12.7152   -0.0005 N.ar    1  LIG1       -0.1338
     31 H          -4.1937   14.5995   -0.0031 H       1  LIG1        0.1085
@<TRIPOS>BOND
     1     6     1    1
     2     1     5   ar
     3     1     2   ar
     4    31    27    1
     5    29    27   ar
     6    29    26   ar
     7    27    30   ar
     8     7     2    1
     9     5     4   ar
    10     2     3   ar
    11    26    25   ar
    12    22    21    1
    13    14    13    1
    14     3     4   ar
    15     3     8    1
    16    30    28   ar
    17     4     9    1
    18    25    28   ar
    19    25    20    1
    20    13     9   ar
    21    13    12   ar
    22     9    10   ar
    23    21    20   ar
    24    21    17   ar
    25    20    19   ar
    26    12    17    1
    27    12    11   ar
    28    17    18   ar
    29    10    11   ar
    30    10    15    1
    31    11    16    1
    32    19    18   ar
    33    19    24    1
    34    18    23    1
