@<TRIPOS>MOLECULE
mol_data/opt/m06hf/geoms/mol2/1213-12.out
 24 26 0 0 0
SMALL
GASTEIGER

@<TRIPOS>ATOM
      1 C           0.1974    1.7494    0.0002 C.ar    1  LIG1        0.0926
      2 C           1.5510    1.7367    0.0009 C.ar    1  LIG1       -0.0233
      3 C           1.9581    3.1165    0.0003 C.ar    1  LIG1       -0.0144
      4 C           0.8076    3.8450   -0.0001 C.ar    1  LIG1        0.1509
      5 O          -0.2595    3.0197   -0.0002 O.2     1  LIG1       -0.4615
      6 H          -0.5472    0.9737    0.0001 H       1  LIG1        0.1029
      7 H           2.1861    0.8680    0.0014 H       1  LIG1        0.0649
      8 H           2.9669    3.4930    0.0004 H       1  LIG1        0.0656
      9 C           0.5124    5.2710   -0.0005 C.ar    1  LIG1        0.0826
     10 C          -0.7045    5.9204   -0.0010 C.ar    1  LIG1       -0.0327
     11 C          -0.4374    7.3121   -0.0006 C.ar    1  LIG1       -0.0327
     12 C           0.9335    7.4648   -0.0011 C.ar    1  LIG1        0.0826
     13 N           1.4954    6.2197   -0.0009 N.ar    1  LIG1       -0.3494
     14 H           2.4843    6.0298   -0.0009 H       1  LIG1        0.1661
     15 H          -1.6650    5.4342   -0.0010 H       1  LIG1        0.0640
     16 H          -1.1496    8.1194   -0.0005 H       1  LIG1        0.0640
     17 C           1.7356    8.6802   -0.0016 C.ar    1  LIG1        0.1509
     18 C           3.0741    8.9310   -0.0025 C.ar    1  LIG1       -0.0144
     19 C           3.2067   10.3635   -0.0023 C.ar    1  LIG1       -0.0233
     20 C           1.9447   10.8528   -0.0016 C.ar    1  LIG1        0.0926
     21 O           1.0500    9.8420   -0.0010 O.2     1  LIG1       -0.4615
     22 H           1.5402   11.8491   -0.0013 H       1  LIG1        0.1029
     23 H           3.8718    8.2077   -0.0032 H       1  LIG1        0.0656
     24 H           4.1184   10.9353   -0.0027 H       1  LIG1        0.0649
@<TRIPOS>BOND
     1    23    18    1
     2    24    19    1
     3    18    19   ar
     4    18    17   ar
     5    19    20   ar
     6    20    22    1
     7    20    21   ar
     8    17    12    1
     9    17    21   ar
    10    12    13   ar
    11    12    11   ar
    12    15    10    1
    13    10    11   ar
    14    10     9   ar
    15    13    14    1
    16    13     9   ar
    17    11    16    1
    18     9     4    1
    19     5     4   ar
    20     5     1   ar
    21     4     3   ar
    22     6     1    1
    23     1     2   ar
    24     3     8    1
    25     3     2   ar
    26     2     7    1
