@<TRIPOS>MOLECULE
mol_data/opt/m06hf/geoms/mol2/1213-134-.out
 35 38 0 0 0
SMALL
GASTEIGER

@<TRIPOS>ATOM
      1 C           0.0036    1.8028    0.5365 C.ar    1  LIG1        0.0926
      2 C           1.3379    1.7765    0.7641 C.ar    1  LIG1       -0.0233
      3 C           1.8143    3.1001    0.4618 C.ar    1  LIG1       -0.0144
      4 C           0.7181    3.8142    0.0854 C.ar    1  LIG1        0.1509
      5 O          -0.3803    3.0319    0.1301 O.2     1  LIG1       -0.4615
      6 H          -0.7735    1.0640    0.6168 H       1  LIG1        0.1029
      7 H           1.9172    0.9316    1.0938 H       1  LIG1        0.0649
      8 H           2.8319    3.4509    0.4944 H       1  LIG1        0.0656
      9 C           0.5236    5.1938   -0.3405 C.ar    1  LIG1        0.0826
     10 C          -0.5137    5.7757   -1.0371 C.ar    1  LIG1       -0.0328
     11 C          -0.1893    7.1482   -1.2011 C.ar    1  LIG1       -0.0343
     12 C           1.0326    7.3579   -0.5928 C.ar    1  LIG1        0.0634
     13 N           1.4491    6.1642   -0.0790 N.ar    1  LIG1       -0.3506
     14 H           2.2582    6.0571    0.5127 H       1  LIG1        0.1660
     15 H          -1.3845    5.2563   -1.3987 H       1  LIG1        0.0640
     16 H          -0.7570    7.8898   -1.7389 H       1  LIG1        0.0639
     17 C           1.8403    8.5660   -0.4336 C.ar    1  LIG1        0.0633
     18 C           3.2082    8.7526   -0.4444 C.ar    1  LIG1       -0.0344
     19 C           3.4446   10.1383   -0.2457 C.ar    1  LIG1       -0.0358
     20 C           2.2162   10.7558   -0.1220 C.ar    1  LIG1        0.0469
     21 N           1.2608    9.7844   -0.2315 N.ar    1  LIG1       -0.3530
     22 H           0.2649    9.9418   -0.2031 H       1  LIG1        0.1659
     23 H           3.9437    7.9825   -0.6093 H       1  LIG1        0.0639
     24 H           4.3999   10.6308   -0.1733 H       1  LIG1        0.0639
     25 C           0.7685   12.5135    0.9095 C.ar    1  LIG1       -0.0526
     26 C           0.4431   13.8496    1.1208 C.ar    1  LIG1       -0.0611
     27 C           1.8659   12.1698    0.1141 C.ar    1  LIG1       -0.0017
     28 C           1.2199   14.8569    0.5551 C.ar    1  LIG1       -0.0617
     29 H          -0.4088   14.1033    1.7380 H       1  LIG1        0.0618
     30 C           2.6388   13.1860   -0.4550 C.ar    1  LIG1       -0.0526
     31 C           2.3219   14.5206   -0.2285 C.ar    1  LIG1       -0.0611
     32 H           3.4751   12.9197   -1.0884 H       1  LIG1        0.0624
     33 H           0.9696   15.8957    0.7246 H       1  LIG1        0.0618
     34 H           0.1874   11.7349    1.3893 H       1  LIG1        0.0624
     35 H           2.9269   15.2991   -0.6745 H       1  LIG1        0.0618
@<TRIPOS>BOND
     1    16    11    1
     2    15    10    1
     3    11    10   ar
     4    11    12   ar
     5    32    30    1
     6    10     9   ar
     7    35    31    1
     8    23    18    1
     9    12    17    1
    10    12    13   ar
    11    30    31   ar
    12    30    27   ar
    13    18    17   ar
    14    18    19   ar
    15    17    21   ar
    16     9    13   ar
    17     9     4    1
    18    19    24    1
    19    19    20   ar
    20    21    22    1
    21    21    20   ar
    22    31    28   ar
    23    20    27    1
    24    13    14    1
    25     4     5   ar
    26     4     3   ar
    27    27    25   ar
    28     5     1   ar
    29     3     8    1
    30     3     2   ar
    31     1     6    1
    32     1     2   ar
    33    28    33    1
    34    28    26   ar
    35     2     7    1
    36    25    26   ar
    37    25    34    1
    38    26    29    1
