@<TRIPOS>MOLECULE
mol_data/opt/m06hf/geoms/mol2/1213-13-8-.out
 31 34 0 0 0
SMALL
GASTEIGER

@<TRIPOS>ATOM
      1 C           0.0522    1.7244    0.2358 C.ar    1  LIG1        0.0926
      2 C           1.3978    1.6898    0.3851 C.ar    1  LIG1       -0.0233
      3 C           1.8430    3.0507    0.2506 C.ar    1  LIG1       -0.0144
      4 C           0.7200    3.7911    0.0392 C.ar    1  LIG1        0.1509
      5 O          -0.3660    2.9914    0.0307 O.2     1  LIG1       -0.4615
      6 H          -0.7121    0.9682    0.2522 H       1  LIG1        0.1029
      7 H           2.0030    0.8176    0.5605 H       1  LIG1        0.0649
      8 H           2.8576    3.4112    0.2797 H       1  LIG1        0.0656
      9 C           0.4871    5.2128   -0.1760 C.ar    1  LIG1        0.0826
     10 C          -0.6062    5.8696   -0.6986 C.ar    1  LIG1       -0.0328
     11 C          -0.3049    7.2563   -0.6912 C.ar    1  LIG1       -0.0343
     12 C           0.9589    7.3997   -0.1614 C.ar    1  LIG1        0.0634
     13 N           1.4302    6.1492    0.1408 N.ar    1  LIG1       -0.3506
     14 H           2.2649    5.9650    0.6755 H       1  LIG1        0.1660
     15 H          -1.5005    5.3912   -1.0594 H       1  LIG1        0.0640
     16 H          -0.9171    8.0630   -1.0572 H       1  LIG1        0.0639
     17 C           1.7559    8.6012    0.0819 C.ar    1  LIG1        0.0634
     18 C           1.3797    9.8429    0.5703 C.ar    1  LIG1       -0.0343
     19 C           2.5385   10.6502    0.6109 C.ar    1  LIG1       -0.0326
     20 C           3.5837    9.8724    0.1510 C.ar    1  LIG1        0.0880
     21 N           3.0932    8.6368   -0.1630 N.ar    1  LIG1       -0.3505
     22 H           3.6468    7.9135   -0.6001 H       1  LIG1        0.1660
     23 H           0.3838   10.1060    0.8826 H       1  LIG1        0.0639
     24 H           2.6278   11.6700    0.9448 H       1  LIG1        0.0640
     25 C           4.9944   10.1676   -0.0235 C.ar    1  LIG1        0.2193
     26 N           5.4359   11.3953    0.2872 N.ar    1  LIG1       -0.1243
     27 C           7.4715   10.6510   -0.3350 C.ar    1  LIG1        0.1605
     28 N           5.7746    9.1863   -0.4871 N.ar    1  LIG1       -0.1243
     29 N           6.6984   11.6357    0.1270 N.ar    1  LIG1       -0.1338
     30 N           7.0412    9.4337   -0.6464 N.ar    1  LIG1       -0.1338
     31 H           8.5223   10.8607   -0.4641 H       1  LIG1        0.1085
@<TRIPOS>BOND
     1    15    10    1
     2    16    11    1
     3    10    11   ar
     4    10     9   ar
     5    11    12   ar
     6    30    28   ar
     7    30    27   ar
     8    22    21    1
     9    28    25   ar
    10    31    27    1
    11    27    29   ar
    12     9     4    1
    13     9    13   ar
    14    21    17   ar
    15    21    20   ar
    16    12    17    1
    17    12    13   ar
    18    25    20    1
    19    25    26   ar
    20     5     4   ar
    21     5     1   ar
    22     4     3   ar
    23    17    18   ar
    24    29    26   ar
    25    13    14    1
    26    20    19   ar
    27     1     6    1
    28     1     2   ar
    29     3     8    1
    30     3     2   ar
    31     2     7    1
    32    18    19   ar
    33    18    23    1
    34    19    24    1
