@<TRIPOS>MOLECULE
mol_data/opt/m06hf/geoms/mol2/1213-48-.out
 33 36 0 0 0
SMALL
GASTEIGER

@<TRIPOS>ATOM
      1 C           0.1434    1.7030    0.3885 C.ar    1  LIG1        0.0926
      2 C           1.4959    1.6802    0.3283 C.ar    1  LIG1       -0.0233
      3 C           1.9030    3.0423    0.1090 C.ar    1  LIG1       -0.0144
      4 C           0.7545    3.7719    0.0640 C.ar    1  LIG1        0.1509
      5 O          -0.3125    2.9641    0.2332 O.2     1  LIG1       -0.4615
      6 H          -0.6025    0.9420    0.5324 H       1  LIG1        0.1029
      7 H           2.1301    0.8156    0.4192 H       1  LIG1        0.0649
      8 H           2.9070    3.4089   -0.0230 H       1  LIG1        0.0656
      9 C           0.4722    5.1884   -0.1282 C.ar    1  LIG1        0.0825
     10 C          -0.7072    5.8222   -0.4591 C.ar    1  LIG1       -0.0328
     11 C          -0.4325    7.2120   -0.5090 C.ar    1  LIG1       -0.0357
     12 C           0.9052    7.3837   -0.2107 C.ar    1  LIG1        0.0470
     13 N           1.4387    6.1425    0.0091 N.ar    1  LIG1       -0.3518
     14 H           2.3632    5.9758    0.3747 H       1  LIG1        0.1660
     15 H          -1.6423    5.3263   -0.6556 H       1  LIG1        0.0640
     16 H          -1.1176    7.9994   -0.7749 H       1  LIG1        0.0639
     17 C           3.0725    8.5963   -0.4948 C.ar    1  LIG1       -0.0520
     18 C           3.8320    9.7555   -0.4208 C.ar    1  LIG1       -0.0503
     19 C           1.7194    8.6072   -0.1361 C.ar    1  LIG1       -0.0017
     20 C           3.2394   10.9469   -0.0004 C.ar    1  LIG1        0.0227
     21 H           4.8767    9.7533   -0.7005 H       1  LIG1        0.0625
     22 C           1.1376    9.8070    0.2899 C.ar    1  LIG1       -0.0520
     23 C           1.8874   10.9717    0.3506 C.ar    1  LIG1       -0.0503
     24 H           0.0989    9.8129    0.5922 H       1  LIG1        0.0624
     25 H           3.5242    7.6852   -0.8670 H       1  LIG1        0.0624
     26 H           1.4425   11.9011    0.6798 H       1  LIG1        0.0625
     27 C           4.0452   12.1890    0.0699 C.ar    1  LIG1        0.2033
     28 N           3.4422   13.3128    0.4703 N.ar    1  LIG1       -0.1258
     29 C           5.4292   14.3262    0.1859 C.ar    1  LIG1        0.1605
     30 N           5.3363   12.1265   -0.2713 N.ar    1  LIG1       -0.1258
     31 N           4.1466   14.4021    0.5301 N.ar    1  LIG1       -0.1339
     32 N           6.0416   13.2151   -0.2134 N.ar    1  LIG1       -0.1339
     33 H           6.0159   15.2311    0.2352 H       1  LIG1        0.1085
@<TRIPOS>BOND
     1    25    17    1
     2    16    11    1
     3    21    18    1
     4    15    10    1
     5    11    10   ar
     6    11    12   ar
     7    17    18   ar
     8    17    19   ar
     9    10     9   ar
    10    18    20   ar
    11    30    32   ar
    12    30    27   ar
    13    32    29   ar
    14    12    19    1
    15    12    13   ar
    16    19    22   ar
    17     9    13   ar
    18     9     4    1
    19     8     3    1
    20    20    27    1
    21    20    23   ar
    22    13    14    1
    23     4     3   ar
    24     4     5   ar
    25    27    28   ar
    26     3     2   ar
    27    29    33    1
    28    29    31   ar
    29     5     1   ar
    30    22    23   ar
    31    22    24    1
    32     2     1   ar
    33     2     7    1
    34    23    26    1
    35     1     6    1
    36    28    31   ar
