@<TRIPOS>MOLECULE
mol_data/opt/m06hf/geoms/mol2/124-.out
 19 20 0 0 0
SMALL
GASTEIGER

@<TRIPOS>ATOM
      1 C           0.2174    1.7725    0.0003 C.ar    1  LIG1        0.0926
      2 C           1.5717    1.7658    0.0004 C.ar    1  LIG1       -0.0233
      3 C           1.9695    3.1467    0.0001 C.ar    1  LIG1       -0.0159
      4 C           0.8192    3.8749   -0.0004 C.ar    1  LIG1        0.1348
      5 O          -0.2442    3.0390   -0.0003 O.2     1  LIG1       -0.4629
      6 H          -0.5242    0.9935    0.0005 H       1  LIG1        0.1029
      7 H           2.2102    0.8998    0.0008 H       1  LIG1        0.0649
      8 H           2.9751    3.5307    0.0001 H       1  LIG1        0.0655
      9 C          -0.7881    5.7716   -0.0016 C.ar    1  LIG1       -0.0511
     10 C          -1.0578    7.1364   -0.0021 C.ar    1  LIG1       -0.0611
     11 C           0.5333    5.3195   -0.0010 C.ar    1  LIG1        0.0172
     12 C          -0.0151    8.0589   -0.0021 C.ar    1  LIG1       -0.0617
     13 H          -2.0845    7.4780   -0.0026 H       1  LIG1        0.0618
     14 C           1.5786    6.2474   -0.0009 C.ar    1  LIG1       -0.0511
     15 C           1.3037    7.6093   -0.0015 C.ar    1  LIG1       -0.0611
     16 H           2.6050    5.9050   -0.0004 H       1  LIG1        0.0625
     17 H          -0.2276    9.1200   -0.0025 H       1  LIG1        0.0618
     18 H          -1.5949    5.0512   -0.0017 H       1  LIG1        0.0625
     19 H           2.1199    8.3198   -0.0014 H       1  LIG1        0.0618
@<TRIPOS>BOND
     1    13    10    1
     2    17    12    1
     3    10    12   ar
     4    10     9   ar
     5    12    15   ar
     6    18     9    1
     7     9    11   ar
     8    15    19    1
     9    15    14   ar
    10    11    14   ar
    11    11     4    1
    12    14    16    1
    13     4     5   ar
    14     4     3   ar
    15     5     1   ar
    16     3     8    1
    17     3     2   ar
    18     1     2   ar
    19     1     6    1
    20     2     7    1
