@<TRIPOS>MOLECULE
mol_data/opt/m06hf/geoms/mol2/124-128-.out
 32 35 0 0 0
SMALL
GASTEIGER

@<TRIPOS>ATOM
      1 C           0.3643    1.6399    0.0007 C.ar    1  LIG1        0.0926
      2 C           1.7190    1.6703    0.0013 C.ar    1  LIG1       -0.0233
      3 C           2.0785    3.0606    0.0006 C.ar    1  LIG1       -0.0159
      4 C           0.9083    3.7571   -0.0003 C.ar    1  LIG1        0.1348
      5 O          -0.1320    2.8925   -0.0002 O.2     1  LIG1       -0.4629
      6 H          -0.3548    0.8404    0.0009 H       1  LIG1        0.1029
      7 H           2.3814    0.8222    0.0021 H       1  LIG1        0.0649
      8 H           3.0739    3.4705    0.0007 H       1  LIG1        0.0655
      9 C          -0.7476    5.6112   -0.0021 C.ar    1  LIG1       -0.0504
     10 C          -1.0576    6.9646   -0.0030 C.ar    1  LIG1       -0.0504
     11 C           0.5842    5.1905   -0.0012 C.ar    1  LIG1        0.0173
     12 C          -0.0370    7.9184   -0.0031 C.ar    1  LIG1        0.0173
     13 H          -2.0898    7.2893   -0.0036 H       1  LIG1        0.0625
     14 C           1.6040    6.1483   -0.0013 C.ar    1  LIG1       -0.0504
     15 C           1.2963    7.4987   -0.0022 C.ar    1  LIG1       -0.0504
     16 H           2.6402    5.8369   -0.0007 H       1  LIG1        0.0625
     17 H          -1.5370    4.8717   -0.0020 H       1  LIG1        0.0625
     18 H           2.0958    8.2284   -0.0023 H       1  LIG1        0.0625
     19 C          -0.3673    9.3496   -0.0040 C.ar    1  LIG1        0.1358
     20 C           0.3888   10.4901   -0.0044 C.ar    1  LIG1       -0.0151
     21 C          -0.5326   11.5809   -0.0054 C.ar    1  LIG1       -0.0120
     22 C          -1.7710   11.0142   -0.0056 C.ar    1  LIG1        0.1760
     23 O          -1.6746    9.6719   -0.0047 O.2     1  LIG1       -0.4516
     24 H           1.4628   10.5510   -0.0041 H       1  LIG1        0.0656
     25 H          -0.3232   12.6368   -0.0060 H       1  LIG1        0.0657
     26 C          -3.1043   11.6087   -0.0064 C.ar    1  LIG1        0.2381
     27 N          -4.1677   10.8025   -0.0064 N.ar    1  LIG1       -0.1226
     28 C          -5.3978   12.6899   -0.0080 C.ar    1  LIG1        0.1605
     29 N          -3.1632   12.9456   -0.0073 N.ar    1  LIG1       -0.1226
     30 N          -5.3425   11.3626   -0.0072 N.ar    1  LIG1       -0.1338
     31 N          -4.3365   13.4966   -0.0080 N.ar    1  LIG1       -0.1338
     32 H          -6.3738   13.1511   -0.0086 H       1  LIG1        0.1085
@<TRIPOS>BOND
     1    32    28    1
     2    31    28   ar
     3    31    29   ar
     4    28    30   ar
     5    29    26   ar
     6    30    27   ar
     7    26    27   ar
     8    26    22    1
     9    25    21    1
    10    22    21   ar
    11    22    23   ar
    12    21    20   ar
    13    23    19   ar
    14    20    24    1
    15    20    19   ar
    16    19    12    1
    17    13    10    1
    18    12    10   ar
    19    12    15   ar
    20    10     9   ar
    21    18    15    1
    22    15    14   ar
    23     9    17    1
    24     9    11   ar
    25    14    11   ar
    26    14    16    1
    27    11     4    1
    28     4     5   ar
    29     4     3   ar
    30     5     1   ar
    31     3     8    1
    32     3     2   ar
    33     1     6    1
    34     1     2   ar
    35     2     7    1
