@<TRIPOS>MOLECULE
mol_data/opt/m06hf/geoms/mol2/124-5-12-.out
 33 36 0 0 0
SMALL
GASTEIGER

@<TRIPOS>ATOM
      1 C           0.2768    1.6520   -0.4809 C.ar    1  LIG1        0.0926
      2 C           1.5322    1.6021    0.0247 C.ar    1  LIG1       -0.0233
      3 C           1.8932    2.9633    0.3108 C.ar    1  LIG1       -0.0159
      4 C           0.8229    3.7243   -0.0485 C.ar    1  LIG1        0.1348
      5 O          -0.1586    2.9268   -0.5283 O.2     1  LIG1       -0.4629
      6 H          -0.4062    0.9003   -0.8351 H       1  LIG1        0.1029
      7 H           2.1276    0.7191    0.1792 H       1  LIG1        0.0649
      8 H           2.8202    3.3129    0.7312 H       1  LIG1        0.0655
      9 C          -0.7167    5.6497   -0.3624 C.ar    1  LIG1       -0.0505
     10 C          -0.9816    7.0116   -0.3271 C.ar    1  LIG1       -0.0529
     11 C           0.5462    5.1679   -0.0072 C.ar    1  LIG1        0.0173
     12 C           0.0003    7.9196    0.0814 C.ar    1  LIG1       -0.0113
     13 H          -1.9504    7.3809   -0.6375 H       1  LIG1        0.0624
     14 C           1.5358    6.0735    0.3841 C.ar    1  LIG1       -0.0505
     15 C           1.2638    7.4330    0.4338 C.ar    1  LIG1       -0.0529
     16 H           2.5200    5.7160    0.6564 H       1  LIG1        0.0625
     17 H          -1.4804    4.9516   -0.6774 H       1  LIG1        0.0625
     18 H           2.0311    8.1217    0.7648 H       1  LIG1        0.0624
     19 C          -0.3088    9.3640    0.1381 C.ar    1  LIG1        0.0200
     20 C          -1.4974    9.9517    0.4695 C.ar    1  LIG1       -0.0462
     21 C          -1.4496   11.3776    0.4123 C.ar    1  LIG1       -0.0434
     22 C          -0.2197   11.8445    0.0438 C.ar    1  LIG1        0.0550
     23 S           0.8883   10.5536   -0.2497 S.2     1  LIG1       -0.0852
     24 H          -2.3691    9.3890    0.7702 H       1  LIG1        0.0629
     25 H          -2.2858   12.0224    0.6393 H       1  LIG1        0.0630
     26 C           0.2040   13.2323   -0.1044 C.ar    1  LIG1        0.1413
     27 C          -0.3952   14.4242    0.1643 C.ar    1  LIG1       -0.0154
     28 C           0.5567   15.4363   -0.2036 C.ar    1  LIG1       -0.0233
     29 C           1.6474   14.7744   -0.6584 C.ar    1  LIG1        0.0926
     30 O           1.4424   13.4420   -0.6022 O.2     1  LIG1       -0.4624
     31 H           2.6003   15.0940   -1.0396 H       1  LIG1        0.1029
     32 H          -1.3789   14.5675    0.5764 H       1  LIG1        0.0655
     33 H           0.4354   16.5036   -0.1324 H       1  LIG1        0.0649
@<TRIPOS>BOND
     1    31    29    1
     2     6     1    1
     3    17     9    1
     4    29    30   ar
     5    29    28   ar
     6    13    10    1
     7    30    26   ar
     8     5     1   ar
     9     5     4   ar
    10     1     2   ar
    11     9    10   ar
    12     9    11   ar
    13    10    12   ar
    14    23    22   ar
    15    23    19   ar
    16    28    33    1
    17    28    27   ar
    18    26    22    1
    19    26    27   ar
    20     4    11    1
    21     4     3   ar
    22    11    14   ar
    23     2     7    1
    24     2     3   ar
    25    22    21   ar
    26    12    19    1
    27    12    15   ar
    28    19    20   ar
    29    27    32    1
    30     3     8    1
    31    14    15   ar
    32    14    16    1
    33    21    20   ar
    34    21    25    1
    35    15    18    1
    36    20    24    1
