@<TRIPOS>MOLECULE
mol_data/opt/m06hf/geoms/mol2/124-85.out
 32 35 0 0 0
SMALL
GASTEIGER

@<TRIPOS>ATOM
      1 C           0.2271    1.6750    0.0015 C.ar    1  LIG1        0.0926
      2 C           1.5820    1.6627    0.0015 C.ar    1  LIG1       -0.0233
      3 C           1.9851    3.0408    0.0007 C.ar    1  LIG1       -0.0159
      4 C           0.8369    3.7736   -0.0001 C.ar    1  LIG1        0.1348
      5 O          -0.2299    2.9421    0.0004 O.2     1  LIG1       -0.4629
      6 H          -0.5183    0.8995    0.0020 H       1  LIG1        0.1029
      7 H           2.2172    0.7944    0.0021 H       1  LIG1        0.0649
      8 H           2.9919    3.4215    0.0006 H       1  LIG1        0.0655
      9 C          -0.7670    5.6699   -0.0019 C.ar    1  LIG1       -0.0504
     10 C          -1.0399    7.0307   -0.0029 C.ar    1  LIG1       -0.0503
     11 C           0.5557    5.2165   -0.0012 C.ar    1  LIG1        0.0173
     12 C           0.0094    7.9511   -0.0034 C.ar    1  LIG1        0.0227
     13 H          -2.0606    7.3882   -0.0035 H       1  LIG1        0.0625
     14 C           1.6024    6.1443   -0.0016 C.ar    1  LIG1       -0.0504
     15 C           1.3331    7.5043   -0.0027 C.ar    1  LIG1       -0.0503
     16 H           2.6290    5.8040   -0.0011 H       1  LIG1        0.0625
     17 H          -1.5746    4.9512   -0.0015 H       1  LIG1        0.0625
     18 H           2.1376    8.2268   -0.0031 H       1  LIG1        0.0625
     19 C          -0.2802    9.4043   -0.0045 C.ar    1  LIG1        0.2034
     20 N           0.7497   10.2590   -0.0050 N.ar    1  LIG1       -0.1252
     21 C          -0.7769   11.9181   -0.0067 C.ar    1  LIG1        0.2099
     22 N          -1.5561    9.8001   -0.0052 N.ar    1  LIG1       -0.1252
     23 N           0.5025   11.5287   -0.0061 N.ar    1  LIG1       -0.1247
     24 N          -1.8080   11.0704   -0.0062 N.ar    1  LIG1       -0.1247
     25 C          -1.0613   13.3537   -0.0079 C.ar    1  LIG1        0.0598
     26 C          -0.1452   14.3667   -0.0086 C.ar    1  LIG1       -0.0438
     27 C          -0.7681   15.6519   -0.0099 C.ar    1  LIG1       -0.0540
     28 C          -2.1291   15.5628   -0.0101 C.ar    1  LIG1       -0.0236
     29 S          -2.6832   13.9379   -0.0088 S.2     1  LIG1       -0.0934
     30 H          -2.8417   16.3720   -0.0110 H       1  LIG1        0.0693
     31 H           0.9194   14.1867   -0.0082 H       1  LIG1        0.0630
     32 H          -0.2281   16.5862   -0.0106 H       1  LIG1        0.0623
@<TRIPOS>BOND
     1    30    28    1
     2    32    27    1
     3    28    27   ar
     4    28    29   ar
     5    27    26   ar
     6    29    25   ar
     7    26    31    1
     8    26    25   ar
     9    25    21    1
    10    21    24   ar
    11    21    23   ar
    12    24    22   ar
    13    23    20   ar
    14    22    19   ar
    15    20    19   ar
    16    19    12    1
    17    13    10    1
    18    12    10   ar
    19    12    15   ar
    20    18    15    1
    21    10     9   ar
    22    15    14   ar
    23     9    17    1
    24     9    11   ar
    25    14    11   ar
    26    14    16    1
    27    11     4    1
    28     4     5   ar
    29     4     3   ar
    30     5     1   ar
    31     8     3    1
    32     3     2   ar
    33     2     1   ar
    34     2     7    1
    35     1     6    1
