@<TRIPOS>MOLECULE
mol_data/opt/m06hf/geoms/mol2/124-8-.out
 25 27 0 0 0
SMALL
GASTEIGER

@<TRIPOS>ATOM
      1 C           0.2298    1.7231    0.0008 C.ar    1  LIG1        0.0926
      2 C           1.5849    1.7172    0.0010 C.ar    1  LIG1       -0.0233
      3 C           1.9815    3.0970    0.0004 C.ar    1  LIG1       -0.0159
      4 C           0.8297    3.8241   -0.0003 C.ar    1  LIG1        0.1348
      5 O          -0.2333    2.9880   -0.0001 O.2     1  LIG1       -0.4629
      6 H          -0.5113    0.9435    0.0010 H       1  LIG1        0.1029
      7 H           2.2244    0.8519    0.0017 H       1  LIG1        0.0649
      8 H           2.9868    3.4819    0.0005 H       1  LIG1        0.0655
      9 C          -0.7810    5.7154   -0.0019 C.ar    1  LIG1       -0.0504
     10 C          -1.0571    7.0756   -0.0028 C.ar    1  LIG1       -0.0503
     11 C           0.5428    5.2658   -0.0012 C.ar    1  LIG1        0.0173
     12 C          -0.0100    7.9981   -0.0030 C.ar    1  LIG1        0.0227
     13 H          -2.0781    7.4320   -0.0034 H       1  LIG1        0.0625
     14 C           1.5875    6.1962   -0.0014 C.ar    1  LIG1       -0.0504
     15 C           1.3150    7.5555   -0.0023 C.ar    1  LIG1       -0.0503
     16 H           2.6148    5.8579   -0.0009 H       1  LIG1        0.0625
     17 H          -1.5869    4.9947   -0.0018 H       1  LIG1        0.0625
     18 H           2.1178    8.2800   -0.0024 H       1  LIG1        0.0625
     19 C          -0.3041    9.4514   -0.0039 C.ar    1  LIG1        0.2033
     20 N          -1.5835    9.8389   -0.0046 N.ar    1  LIG1       -0.1258
     21 C          -0.8085   11.9496   -0.0056 C.ar    1  LIG1        0.1605
     22 N           0.7245   10.3050   -0.0041 N.ar    1  LIG1       -0.1258
     23 N          -1.8413   11.1115   -0.0054 N.ar    1  LIG1       -0.1339
     24 N           0.4683   11.5782   -0.0049 N.ar    1  LIG1       -0.1339
     25 H          -1.0231   13.0078   -0.0063 H       1  LIG1        0.1085
@<TRIPOS>BOND
     1    25    21    1
     2    21    23   ar
     3    21    24   ar
     4    23    20   ar
     5    24    22   ar
     6    20    19   ar
     7    22    19   ar
     8    19    12    1
     9    13    10    1
    10    12    10   ar
    11    12    15   ar
    12    10     9   ar
    13    18    15    1
    14    15    14   ar
    15     9    17    1
    16     9    11   ar
    17    14    11   ar
    18    14    16    1
    19    11     4    1
    20     4     5   ar
    21     4     3   ar
    22     5     1   ar
    23     3     8    1
    24     3     2   ar
    25     1     6    1
    26     1     2   ar
    27     2     7    1
