@<TRIPOS>MOLECULE
mol_data/opt/m06hf/geoms/mol2/124-5.out
 26 28 0 0 0
SMALL
GASTEIGER

@<TRIPOS>ATOM
      1 C           0.2552    1.7090   -0.2617 C.ar    1  LIG1        0.0926
      2 C           1.5675    1.6822    0.0736 C.ar    1  LIG1       -0.0233
      3 C           1.9540    3.0548    0.2513 C.ar    1  LIG1       -0.0159
      4 C           0.8402    3.7987    0.0058 C.ar    1  LIG1        0.1348
      5 O          -0.1909    2.9806   -0.3050 O.2     1  LIG1       -0.4629
      6 H          -0.4641    0.9431   -0.4914 H       1  LIG1        0.1029
      7 H           2.1853    0.8080    0.1850 H       1  LIG1        0.0649
      8 H           2.9248    3.4233    0.5342 H       1  LIG1        0.0655
      9 C          -0.7470    5.7078   -0.1161 C.ar    1  LIG1       -0.0505
     10 C          -1.0120    7.0711   -0.1023 C.ar    1  LIG1       -0.0529
     11 C           0.5631    5.2432    0.0218 C.ar    1  LIG1        0.0173
     12 C           0.0225    7.9968    0.0585 C.ar    1  LIG1       -0.0113
     13 H          -2.0277    7.4213   -0.2361 H       1  LIG1        0.0624
     14 C           1.6011    6.1659    0.1787 C.ar    1  LIG1       -0.0505
     15 C           1.3317    7.5262    0.2074 C.ar    1  LIG1       -0.0529
     16 H           2.6212    5.8210    0.2842 H       1  LIG1        0.0625
     17 H          -1.5517    4.9966   -0.2426 H       1  LIG1        0.0625
     18 H           2.1359    8.2335    0.3620 H       1  LIG1        0.0624
     19 C          -0.2424    9.4525    0.0632 C.ar    1  LIG1        0.0193
     20 C           0.5323   10.4441   -0.4676 C.ar    1  LIG1       -0.0469
     21 C          -0.0267   11.7497   -0.2795 C.ar    1  LIG1       -0.0541
     22 C          -1.2115   11.7144    0.3866 C.ar    1  LIG1       -0.0237
     23 S          -1.6616   10.1076    0.8032 S.2     1  LIG1       -0.0967
     24 H          -1.8447   12.5422    0.6608 H       1  LIG1        0.0693
     25 H           1.4513   10.2479   -1.0004 H       1  LIG1        0.0629
     26 H           0.4325   12.6603   -0.6340 H       1  LIG1        0.0623
@<TRIPOS>BOND
     1    25    20    1
     2    26    21    1
     3     6     1    1
     4    20    21   ar
     5    20    19   ar
     6     5     1   ar
     7     5     4   ar
     8    21    22   ar
     9     1     2   ar
    10    17     9    1
    11    13    10    1
    12     9    10   ar
    13     9    11   ar
    14    10    12   ar
    15     4    11    1
    16     4     3   ar
    17    11    14   ar
    18    12    19    1
    19    12    15   ar
    20    19    23   ar
    21     2     7    1
    22     2     3   ar
    23    14    15   ar
    24    14    16    1
    25    15    18    1
    26     3     8    1
    27    22    24    1
    28    22    23   ar
