@<TRIPOS>MOLECULE
mol_data/opt/m06hf/geoms/mol2/124-12.out
 26 28 0 0 0
SMALL
GASTEIGER

@<TRIPOS>ATOM
      1 C           0.2406    1.7103    0.0010 C.ar    1  LIG1        0.0926
      2 C           1.5949    1.7065    0.0007 C.ar    1  LIG1       -0.0233
      3 C           1.9899    3.0879    0.0006 C.ar    1  LIG1       -0.0159
      4 C           0.8377    3.8140   -0.0003 C.ar    1  LIG1        0.1348
      5 O          -0.2239    2.9756   -0.0000 O.2     1  LIG1       -0.4629
      6 H          -0.5002    0.9304    0.0014 H       1  LIG1        0.1029
      7 H           2.2355    0.8421    0.0010 H       1  LIG1        0.0649
      8 H           2.9943    3.4748    0.0007 H       1  LIG1        0.0655
      9 C          -0.7764    5.7043   -0.0021 C.ar    1  LIG1       -0.0504
     10 C          -1.0572    7.0644   -0.0029 C.ar    1  LIG1       -0.0504
     11 C           0.5462    5.2556   -0.0013 C.ar    1  LIG1        0.0173
     12 C          -0.0204    8.0002   -0.0030 C.ar    1  LIG1        0.0173
     13 H          -2.0822    7.4087   -0.0036 H       1  LIG1        0.0625
     14 C           1.5840    6.1930   -0.0013 C.ar    1  LIG1       -0.0504
     15 C           1.3038    7.5504   -0.0022 C.ar    1  LIG1       -0.0504
     16 H           2.6139    5.8613   -0.0007 H       1  LIG1        0.0625
     17 H          -1.5813    4.9822   -0.0020 H       1  LIG1        0.0625
     18 H           2.1181    8.2628   -0.0023 H       1  LIG1        0.0625
     19 C          -0.3236    9.4393   -0.0040 C.ar    1  LIG1        0.1348
     20 C           0.4469   10.5624   -0.0045 C.ar    1  LIG1       -0.0159
     21 C          -0.4629   11.6744   -0.0055 C.ar    1  LIG1       -0.0233
     22 C          -1.7050   11.1346   -0.0053 C.ar    1  LIG1        0.0926
     23 O          -1.6304    9.7888   -0.0045 O.2     1  LIG1       -0.4629
     24 H          -2.6941   11.5574   -0.0057 H       1  LIG1        0.1029
     25 H           1.5223   10.6049   -0.0043 H       1  LIG1        0.0655
     26 H          -0.2170   12.7218   -0.0061 H       1  LIG1        0.0649
@<TRIPOS>BOND
     1    26    21    1
     2    24    22    1
     3    21    22   ar
     4    21    20   ar
     5    22    23   ar
     6    23    19   ar
     7    20    25    1
     8    20    19   ar
     9    19    12    1
    10    13    10    1
    11    12    10   ar
    12    12    15   ar
    13    10     9   ar
    14    18    15    1
    15    15    14   ar
    16     9    17    1
    17     9    11   ar
    18    14    11   ar
    19    14    16    1
    20    11     4    1
    21     4     5   ar
    22     4     3   ar
    23     5     1   ar
    24     3     8    1
    25     3     2   ar
    26     2     1   ar
    27     2     7    1
    28     1     6    1
