@<TRIPOS>MOLECULE
mol_data/opt/m06hf/geoms/mol2/124-812.out
 32 35 0 0 0
SMALL
GASTEIGER

@<TRIPOS>ATOM
      1 C           0.2825    1.6820    0.0013 C.ar    1  LIG1        0.0926
      2 C           1.6375    1.6913    0.0016 C.ar    1  LIG1       -0.0233
      3 C           2.0187    3.0756    0.0006 C.ar    1  LIG1       -0.0159
      4 C           0.8589    3.7900   -0.0001 C.ar    1  LIG1        0.1348
      5 O          -0.1945    2.9418    0.0002 O.2     1  LIG1       -0.4629
      6 H          -0.4502    0.8945    0.0017 H       1  LIG1        0.1029
      7 H           2.2865    0.8332    0.0025 H       1  LIG1        0.0649
      8 H           3.0194    3.4721    0.0006 H       1  LIG1        0.0655
      9 C          -0.7750    5.6606   -0.0020 C.ar    1  LIG1       -0.0504
     10 C          -1.0694    7.0169   -0.0030 C.ar    1  LIG1       -0.0503
     11 C           0.5546    5.2283   -0.0012 C.ar    1  LIG1        0.0173
     12 C          -0.0348    7.9538   -0.0034 C.ar    1  LIG1        0.0227
     13 H          -2.0952    7.3591   -0.0036 H       1  LIG1        0.0625
     14 C           1.5865    6.1726   -0.0016 C.ar    1  LIG1       -0.0504
     15 C           1.2959    7.5283   -0.0027 C.ar    1  LIG1       -0.0503
     16 H           2.6184    5.8482   -0.0011 H       1  LIG1        0.0625
     17 H          -1.5713    4.9293   -0.0017 H       1  LIG1        0.0625
     18 H           2.0892    8.2632   -0.0030 H       1  LIG1        0.0625
     19 C          -0.3497    9.4019   -0.0045 C.ar    1  LIG1        0.2034
     20 N           0.6656   10.2747   -0.0049 N.ar    1  LIG1       -0.1251
     21 C          -0.8950   11.9000   -0.0065 C.ar    1  LIG1        0.2381
     22 N          -1.6320    9.7741   -0.0052 N.ar    1  LIG1       -0.1251
     23 N           0.3922   11.5384   -0.0059 N.ar    1  LIG1       -0.1220
     24 N          -1.9144   11.0401   -0.0062 N.ar    1  LIG1       -0.1220
     25 C          -1.1738   13.3356   -0.0077 C.ar    1  LIG1        0.1751
     26 C          -0.3364   14.4083   -0.0082 C.ar    1  LIG1       -0.0126
     27 C          -1.1890   15.5597   -0.0093 C.ar    1  LIG1       -0.0232
     28 C          -2.4599   15.0785   -0.0094 C.ar    1  LIG1        0.0927
     29 O          -2.4587   13.7352   -0.0084 O.2     1  LIG1       -0.4597
     30 H          -3.4255   15.5525   -0.0100 H       1  LIG1        0.1029
     31 H           0.7395   14.3674   -0.0078 H       1  LIG1        0.0656
     32 H          -0.8943   16.5943   -0.0100 H       1  LIG1        0.0649
@<TRIPOS>BOND
     1    30    28    1
     2    32    27    1
     3    28    27   ar
     4    28    29   ar
     5    27    26   ar
     6    29    25   ar
     7    26    31    1
     8    26    25   ar
     9    25    21    1
    10    21    24   ar
    11    21    23   ar
    12    24    22   ar
    13    23    20   ar
    14    22    19   ar
    15    20    19   ar
    16    19    12    1
    17    13    10    1
    18    12    10   ar
    19    12    15   ar
    20    10     9   ar
    21    18    15    1
    22    15    14   ar
    23     9    17    1
    24     9    11   ar
    25    14    11   ar
    26    14    16    1
    27    11     4    1
    28     4     5   ar
    29     4     3   ar
    30     5     1   ar
    31     8     3    1
    32     3     2   ar
    33     1     2   ar
    34     1     6    1
    35     2     7    1
