@<TRIPOS>MOLECULE
mol_data/opt/m06hf/geoms/mol2/124-13.out
 27 29 0 0 0
SMALL
GASTEIGER

@<TRIPOS>ATOM
      1 C           0.2509    1.6910   -0.1097 C.ar    1  LIG1        0.0926
      2 C           1.5970    1.6897    0.0404 C.ar    1  LIG1       -0.0233
      3 C           1.9836    3.0716    0.1166 C.ar    1  LIG1       -0.0159
      4 C           0.8355    3.7951    0.0069 C.ar    1  LIG1        0.1348
      5 O          -0.2162    2.9557   -0.1307 O.2     1  LIG1       -0.4629
      6 H          -0.4818    0.9101   -0.2103 H       1  LIG1        0.1029
      7 H           2.2377    0.8265    0.0897 H       1  LIG1        0.0649
      8 H           2.9808    3.4604    0.2300 H       1  LIG1        0.0655
      9 C          -0.7537    5.6907   -0.2443 C.ar    1  LIG1       -0.0505
     10 C          -1.0278    7.0527   -0.2617 C.ar    1  LIG1       -0.0520
     11 C           0.5436    5.2369    0.0026 C.ar    1  LIG1        0.0173
     12 C          -0.0190    7.9891   -0.0175 C.ar    1  LIG1       -0.0017
     13 H          -2.0288    7.3900   -0.5015 H       1  LIG1        0.0624
     14 C           1.5574    6.1701    0.2399 C.ar    1  LIG1       -0.0505
     15 C           1.2774    7.5281    0.2365 C.ar    1  LIG1       -0.0520
     16 H           2.5645    5.8333    0.4473 H       1  LIG1        0.0625
     17 H          -1.5390    4.9727   -0.4382 H       1  LIG1        0.0625
     18 H           2.0593    8.2440    0.4532 H       1  LIG1        0.0624
     19 C          -0.2991    9.4366   -0.0303 C.ar    1  LIG1        0.0465
     20 C           0.4763   10.5001   -0.4414 C.ar    1  LIG1       -0.0364
     21 C          -0.2874   11.6849   -0.2500 C.ar    1  LIG1       -0.0438
     22 C          -1.4995   11.3050    0.2734 C.ar    1  LIG1        0.0022
     23 N          -1.4969    9.9465    0.3941 N.ar    1  LIG1       -0.3607
     24 H          -2.2248    9.3985    0.8233 H       1  LIG1        0.1653
     25 H          -2.3525   11.8895    0.5713 H       1  LIG1        0.0807
     26 H           1.4623   10.4229   -0.8683 H       1  LIG1        0.0639
     27 H           0.0126   12.6932   -0.4781 H       1  LIG1        0.0633
@<TRIPOS>BOND
     1    26    20    1
     2    13    10    1
     3    27    21    1
     4    20    21   ar
     5    20    19   ar
     6    17     9    1
     7    10     9   ar
     8    10    12   ar
     9    21    22   ar
    10     9    11   ar
    11     6     1    1
    12     5     1   ar
    13     5     4   ar
    14     1     2   ar
    15    19    12    1
    16    19    23   ar
    17    12    15   ar
    18    11     4    1
    19    11    14   ar
    20     4     3   ar
    21     2     7    1
    22     2     3   ar
    23     3     8    1
    24    15    14   ar
    25    15    18    1
    26    14    16    1
    27    22    23   ar
    28    22    25    1
    29    23    24    1
