@<TRIPOS>MOLECULE
mol_data/opt/m06hf/geoms/mol2/124-13-.out
 27 29 0 0 0
SMALL
GASTEIGER

@<TRIPOS>ATOM
      1 C           0.2443    1.6958   -0.1576 C.ar    1  LIG1        0.0926
      2 C           1.5843    1.6857    0.0389 C.ar    1  LIG1       -0.0233
      3 C           1.9746    3.0647    0.1452 C.ar    1  LIG1       -0.0159
      4 C           0.8343    3.7954    0.0041 C.ar    1  LIG1        0.1348
      5 O          -0.2156    2.9629   -0.1800 O.2     1  LIG1       -0.4629
      6 H          -0.4878    0.9198   -0.2929 H       1  LIG1        0.1029
      7 H           2.2184    0.8185    0.1007 H       1  LIG1        0.0649
      8 H           2.9688    3.4459    0.3017 H       1  LIG1        0.0655
      9 C          -0.7482    5.7018   -0.2240 C.ar    1  LIG1       -0.0505
     10 C          -1.0164    7.0639   -0.2300 C.ar    1  LIG1       -0.0520
     11 C           0.5494    5.2385    0.0110 C.ar    1  LIG1        0.0173
     12 C          -0.0013    7.9932    0.0132 C.ar    1  LIG1       -0.0017
     13 H          -2.0159    7.4189   -0.4443 H       1  LIG1        0.0624
     14 C           1.5681    6.1634    0.2523 C.ar    1  LIG1       -0.0505
     15 C           1.2935    7.5237    0.2605 C.ar    1  LIG1       -0.0520
     16 H           2.5743    5.8203    0.4539 H       1  LIG1        0.0625
     17 H          -1.5390    4.9890   -0.4149 H       1  LIG1        0.0625
     18 H           2.0848    8.2254    0.4950 H       1  LIG1        0.0624
     19 C          -0.3028    9.4365    0.0175 C.ar    1  LIG1        0.0465
     20 C          -1.4205   10.1212    0.4457 C.ar    1  LIG1       -0.0364
     21 C          -1.1784   11.5069    0.2362 C.ar    1  LIG1       -0.0438
     22 C           0.0752   11.6206   -0.3147 C.ar    1  LIG1        0.0022
     23 N           0.5956   10.3654   -0.4341 N.ar    1  LIG1       -0.3607
     24 H           1.4699   10.1368   -0.8786 H       1  LIG1        0.1653
     25 H           0.6292   12.4867   -0.6324 H       1  LIG1        0.0807
     26 H          -2.2910    9.6719    0.8939 H       1  LIG1        0.0639
     27 H          -1.8398   12.3235    0.4702 H       1  LIG1        0.0633
@<TRIPOS>BOND
     1    24    23    1
     2    25    22    1
     3    13    10    1
     4    23    22   ar
     5    23    19   ar
     6    17     9    1
     7    22    21   ar
     8     6     1    1
     9    10     9   ar
    10    10    12   ar
    11     9    11   ar
    12     5     1   ar
    13     5     4   ar
    14     1     2   ar
    15     4    11    1
    16     4     3   ar
    17    11    14   ar
    18    12    19    1
    19    12    15   ar
    20    19    20   ar
    21     2     7    1
    22     2     3   ar
    23     3     8    1
    24    21    20   ar
    25    21    27    1
    26    14    15   ar
    27    14    16    1
    28    15    18    1
    29    20    26    1
