@<TRIPOS>MOLECULE
mol_data/opt/m06hf/geoms/mol2/124.out
 19 20 0 0 0
SMALL
GASTEIGER

@<TRIPOS>ATOM
      1 C           0.2468    1.7620   -0.0004 C.ar    1  LIG1        0.0926
      2 C           1.6011    1.7770   -0.0005 C.ar    1  LIG1       -0.0233
      3 C           1.9767    3.1641    0.0002 C.ar    1  LIG1       -0.0159
      4 C           0.8149    3.8738    0.0003 C.ar    1  LIG1        0.1348
      5 O          -0.2350    3.0210   -0.0000 O.2     1  LIG1       -0.4629
      6 H          -0.4822    0.9712   -0.0007 H       1  LIG1        0.1029
      7 H           2.2533    0.9212   -0.0008 H       1  LIG1        0.0649
      8 H           2.9761    3.5641    0.0004 H       1  LIG1        0.0655
      9 C           1.5363    6.2581    0.0014 C.ar    1  LIG1       -0.0511
     10 C           1.2396    7.6154    0.0019 C.ar    1  LIG1       -0.0611
     11 C           0.5060    5.3136    0.0008 C.ar    1  LIG1        0.0172
     12 C          -0.0863    8.0439    0.0018 C.ar    1  LIG1       -0.0617
     13 H           2.0444    8.3389    0.0023 H       1  LIG1        0.0618
     14 C          -0.8226    5.7445    0.0008 C.ar    1  LIG1       -0.0511
     15 C          -1.1140    7.1048    0.0013 C.ar    1  LIG1       -0.0611
     16 H          -1.6177    5.0113    0.0004 H       1  LIG1        0.0625
     17 H          -0.3157    9.1014    0.0022 H       1  LIG1        0.0618
     18 H           2.5680    5.9322    0.0014 H       1  LIG1        0.0625
     19 H          -2.1460    7.4299    0.0012 H       1  LIG1        0.0618
@<TRIPOS>BOND
     1     7     2    1
     2     6     1    1
     3     2     1   ar
     4     2     3   ar
     5     1     5   ar
     6     5     4   ar
     7     3     4   ar
     8     3     8    1
     9     4    11    1
    10    16    14    1
    11    14    11   ar
    12    14    15   ar
    13    11     9   ar
    14    19    15    1
    15    15    12   ar
    16     9    18    1
    17     9    10   ar
    18    12    10   ar
    19    12    17    1
    20    10    13    1
