@<TRIPOS>MOLECULE
mol_data/opt/m06hf/geoms/mol2/12413-4-.out
 37 40 0 0 0
SMALL
GASTEIGER

@<TRIPOS>ATOM
      1 C           0.2175    1.6238   -0.4923 C.ar    1  LIG1        0.0926
      2 C           1.5463    1.6011   -0.2324 C.ar    1  LIG1       -0.0233
      3 C           1.9213    2.9672    0.0082 C.ar    1  LIG1       -0.0159
      4 C           0.7836    3.7038   -0.1253 C.ar    1  LIG1        0.1348
      5 O          -0.2503    2.8867   -0.4299 O.2     1  LIG1       -0.4629
      6 H          -0.5015    0.8598   -0.7282 H       1  LIG1        0.1029
      7 H           2.1833    0.7338   -0.2130 H       1  LIG1        0.0649
      8 H           2.9044    3.3370    0.2420 H       1  LIG1        0.0655
      9 C           1.4859    6.0402    0.3771 C.ar    1  LIG1       -0.0505
     10 C           1.2023    7.3931    0.4940 C.ar    1  LIG1       -0.0520
     11 C           0.4891    5.1397   -0.0066 C.ar    1  LIG1        0.0173
     12 C          -0.0794    7.8813    0.2151 C.ar    1  LIG1       -0.0017
     13 H           1.9733    8.0727    0.8369 H       1  LIG1        0.0624
     14 C          -0.7958    5.6210   -0.2747 C.ar    1  LIG1       -0.0505
     15 C          -1.0728    6.9770   -0.1712 C.ar    1  LIG1       -0.0520
     16 H          -1.5688    4.9267   -0.5754 H       1  LIG1        0.0625
     17 H           2.4806    5.6810    0.6063 H       1  LIG1        0.0625
     18 H          -2.0604    7.3485   -0.4107 H       1  LIG1        0.0624
     19 C          -0.3864    9.3171    0.3349 C.ar    1  LIG1        0.0469
     20 C          -1.5414    9.9639    0.7250 C.ar    1  LIG1       -0.0358
     21 C          -1.2883   11.3594    0.6667 C.ar    1  LIG1       -0.0358
     22 C           0.0137   11.5269    0.2422 C.ar    1  LIG1        0.0469
     23 N           0.5464   10.2801    0.0602 N.ar    1  LIG1       -0.3542
     24 H           1.4309   10.1014   -0.3906 H       1  LIG1        0.1659
     25 H          -2.4440    9.4804    1.0600 H       1  LIG1        0.0639
     26 H          -1.9581   12.1549    0.9481 H       1  LIG1        0.0639
     27 C           0.1779   13.8990   -0.4929 C.ar    1  LIG1       -0.0526
     28 C           0.9101   15.0622   -0.7007 C.ar    1  LIG1       -0.0611
     29 C           0.8011   12.7522    0.0078 C.ar    1  LIG1       -0.0017
     30 C           2.2762   15.0906   -0.4274 C.ar    1  LIG1       -0.0617
     31 H           0.4173   15.9443   -1.0881 H       1  LIG1        0.0618
     32 C           2.1702   12.7897    0.2899 C.ar    1  LIG1       -0.0526
     33 C           2.9043   13.9499    0.0653 C.ar    1  LIG1       -0.0611
     34 H           2.6530   11.9182    0.7156 H       1  LIG1        0.0624
     35 H           2.8452   15.9950   -0.5963 H       1  LIG1        0.0618
     36 H          -0.8764   13.8624   -0.7347 H       1  LIG1        0.0624
     37 H           3.9628   13.9676    0.2904 H       1  LIG1        0.0618
@<TRIPOS>BOND
     1    31    28    1
     2    36    27    1
     3     6     1    1
     4    28    27   ar
     5    28    30   ar
     6    35    30    1
     7    16    14    1
     8    27    29   ar
     9     1     5   ar
    10     1     2   ar
    11     5     4   ar
    12    30    33   ar
    13    18    15    1
    14    24    23    1
    15    14    15   ar
    16    14    11   ar
    17     2     7    1
    18     2     3   ar
    19    15    12   ar
    20     4    11    1
    21     4     3   ar
    22    11     9   ar
    23    29    22    1
    24    29    32   ar
    25     3     8    1
    26    23    22   ar
    27    23    19   ar
    28    33    32   ar
    29    33    37    1
    30    12    19    1
    31    12    10   ar
    32    22    21   ar
    33    32    34    1
    34    19    20   ar
    35     9    10   ar
    36     9    17    1
    37    10    13    1
    38    21    20   ar
    39    21    26    1
    40    20    25    1
