@<TRIPOS>MOLECULE
mol_data/opt/m06hf/geoms/mol2/12413-.out
 27 29 0 0 0
SMALL
GASTEIGER

@<TRIPOS>ATOM
      1 C           0.2803    1.6842   -0.1618 C.ar    1  LIG1        0.0926
      2 C           1.6202    1.6991    0.0348 C.ar    1  LIG1       -0.0233
      3 C           1.9844    3.0850    0.1434 C.ar    1  LIG1       -0.0159
      4 C           0.8305    3.7942    0.0036 C.ar    1  LIG1        0.1348
      5 O          -0.2034    2.9424   -0.1826 O.2     1  LIG1       -0.4629
      6 H          -0.4371    0.8947   -0.2983 H       1  LIG1        0.1029
      7 H           2.2705    0.8438    0.0954 H       1  LIG1        0.0649
      8 H           2.9713    3.4845    0.3007 H       1  LIG1        0.0655
      9 C           1.5197    6.1752    0.2552 C.ar    1  LIG1       -0.0505
     10 C           1.2194    7.5301    0.2656 C.ar    1  LIG1       -0.0520
     11 C           0.5185    5.2316    0.0129 C.ar    1  LIG1        0.0173
     12 C          -0.0842    7.9756    0.0196 C.ar    1  LIG1       -0.0017
     13 H           1.9975    8.2462    0.5007 H       1  LIG1        0.0624
     14 C          -0.7877    5.6708   -0.2209 C.ar    1  LIG1       -0.0505
     15 C          -1.0816    7.0275   -0.2246 C.ar    1  LIG1       -0.0520
     16 H          -1.5651    4.9434   -0.4126 H       1  LIG1        0.0625
     17 H           2.5323    5.8510    0.4558 H       1  LIG1        0.0625
     18 H          -2.0877    7.3639   -0.4378 H       1  LIG1        0.0624
     19 C          -0.4130    9.4129    0.0264 C.ar    1  LIG1        0.0465
     20 C          -1.5431   10.0755    0.4568 C.ar    1  LIG1       -0.0364
     21 C          -1.3279   11.4659    0.2489 C.ar    1  LIG1       -0.0438
     22 C          -0.0773   11.6043   -0.3031 C.ar    1  LIG1        0.0022
     23 N           0.4668   10.3594   -0.4252 N.ar    1  LIG1       -0.3607
     24 H           1.3455   10.1483   -0.8697 H       1  LIG1        0.1653
     25 H           0.4597   12.4811   -0.6206 H       1  LIG1        0.0807
     26 H          -2.4044    9.6090    0.9053 H       1  LIG1        0.0639
     27 H          -2.0046   12.2693    0.4844 H       1  LIG1        0.0633
@<TRIPOS>BOND
     1    24    23    1
     2    25    22    1
     3    18    15    1
     4    23    22   ar
     5    23    19   ar
     6    16    14    1
     7    22    21   ar
     8     6     1    1
     9    15    14   ar
    10    15    12   ar
    11    14    11   ar
    12     5     1   ar
    13     5     4   ar
    14     1     2   ar
    15     4    11    1
    16     4     3   ar
    17    11     9   ar
    18    12    19    1
    19    12    10   ar
    20    19    20   ar
    21     2     7    1
    22     2     3   ar
    23     3     8    1
    24    21    20   ar
    25    21    27    1
    26     9    10   ar
    27     9    17    1
    28    10    13    1
    29    20    26    1
