@<TRIPOS>MOLECULE
mol_data/opt/m06hf/geoms/mol2/12413-5.out
 34 37 0 0 0
SMALL
GASTEIGER

@<TRIPOS>ATOM
      1 C           0.2722    1.6627   -0.6495 C.ar    1  LIG1        0.0926
      2 C           1.5083    1.5928   -0.1001 C.ar    1  LIG1       -0.0233
      3 C           1.8544    2.9412    0.2572 C.ar    1  LIG1       -0.0159
      4 C           0.7963    3.7153   -0.1090 C.ar    1  LIG1        0.1348
      5 O          -0.1640    2.9382   -0.6596 O.2     1  LIG1       -0.4629
      6 H          -0.3947    0.9264   -1.0615 H       1  LIG1        0.1029
      7 H           2.0997    0.7047    0.0399 H       1  LIG1        0.0649
      8 H           2.7610    3.2736    0.7326 H       1  LIG1        0.0655
      9 C           1.5101    6.0538    0.3738 C.ar    1  LIG1       -0.0505
     10 C           1.2285    7.4080    0.4876 C.ar    1  LIG1       -0.0520
     11 C           0.5114    5.1548   -0.0078 C.ar    1  LIG1        0.0173
     12 C          -0.0506    7.8969    0.2005 C.ar    1  LIG1       -0.0017
     13 H           2.0008    8.0882    0.8260 H       1  LIG1        0.0624
     14 C          -0.7700    5.6381   -0.2886 C.ar    1  LIG1       -0.0505
     15 C          -1.0437    6.9952   -0.1927 C.ar    1  LIG1       -0.0520
     16 H          -1.5427    4.9444   -0.5918 H       1  LIG1        0.0625
     17 H           2.5076    5.6939    0.5894 H       1  LIG1        0.0625
     18 H          -2.0283    7.3695   -0.4403 H       1  LIG1        0.0624
     19 C          -0.3582    9.3340    0.3105 C.ar    1  LIG1        0.0469
     20 C          -1.5127    9.9803    0.7049 C.ar    1  LIG1       -0.0358
     21 C          -1.2687   11.3758    0.6278 C.ar    1  LIG1       -0.0353
     22 C           0.0280   11.5407    0.1867 C.ar    1  LIG1        0.0536
     23 N           0.5659   10.2961    0.0098 N.ar    1  LIG1       -0.3537
     24 H           1.4509   10.1218   -0.4412 H       1  LIG1        0.1659
     25 H          -2.4101    9.4959    1.0520 H       1  LIG1        0.0639
     26 H          -1.9411   12.1735    0.8962 H       1  LIG1        0.0639
     27 C           0.8093   12.7472   -0.0920 C.ar    1  LIG1        0.0355
     28 C           2.1424   12.9575    0.1211 C.ar    1  LIG1       -0.0455
     29 C           2.5694   14.2608   -0.2948 C.ar    1  LIG1       -0.0541
     30 C           1.5490   15.0032   -0.8027 C.ar    1  LIG1       -0.0237
     31 S           0.0644   14.1312   -0.8077 S.2     1  LIG1       -0.0952
     32 H           1.5849   16.0138   -1.1753 H       1  LIG1        0.0693
     33 H           2.7866   12.2271    0.5895 H       1  LIG1        0.0629
     34 H           3.5823   14.6225   -0.2018 H       1  LIG1        0.0623
@<TRIPOS>BOND
     1    32    30    1
     2     6     1    1
     3    31    30   ar
     4    31    27   ar
     5    30    29   ar
     6     5     1   ar
     7     5     4   ar
     8     1     2   ar
     9    16    14    1
    10    24    23    1
    11    18    15    1
    12    29    34    1
    13    29    28   ar
    14    14    15   ar
    15    14    11   ar
    16    15    12   ar
    17     4    11    1
    18     4     3   ar
    19     2     7    1
    20     2     3   ar
    21    27    28   ar
    22    27    22    1
    23    11     9   ar
    24    23    22   ar
    25    23    19   ar
    26    28    33    1
    27    22    21   ar
    28    12    19    1
    29    12    10   ar
    30     3     8    1
    31    19    20   ar
    32     9    10   ar
    33     9    17    1
    34    10    13    1
    35    21    20   ar
    36    21    26    1
    37    20    25    1
