@<TRIPOS>MOLECULE
mol_data/opt/m06hf/geoms/mol2/12413.out
 27 29 0 0 0
SMALL
GASTEIGER

@<TRIPOS>ATOM
      1 C           0.2878    1.6793   -0.1098 C.ar    1  LIG1        0.0926
      2 C           1.6338    1.7035    0.0388 C.ar    1  LIG1       -0.0233
      3 C           1.9941    3.0925    0.1158 C.ar    1  LIG1       -0.0159
      4 C           0.8323    3.7941    0.0081 C.ar    1  LIG1        0.1348
      5 O          -0.2034    2.9348   -0.1292 O.2     1  LIG1       -0.4629
      6 H          -0.4300    0.8846   -0.2104 H       1  LIG1        0.1029
      7 H           2.2909    0.8527    0.0865 H       1  LIG1        0.0649
      8 H           2.9838    3.5002    0.2285 H       1  LIG1        0.0655
      9 C           1.5087    6.1822    0.2431 C.ar    1  LIG1       -0.0505
     10 C           1.2028    7.5346    0.2412 C.ar    1  LIG1       -0.0520
     11 C           0.5129    5.2300    0.0054 C.ar    1  LIG1        0.0173
     12 C          -0.1023    7.9710   -0.0118 C.ar    1  LIG1       -0.0017
     13 H           1.9710    8.2651    0.4582 H       1  LIG1        0.0624
     14 C          -0.7931    5.6592   -0.2403 C.ar    1  LIG1       -0.0505
     15 C          -1.0931    7.0157   -0.2564 C.ar    1  LIG1       -0.0520
     16 H          -1.5646    4.9265   -0.4345 H       1  LIG1        0.0625
     17 H           2.5222    5.8645    0.4497 H       1  LIG1        0.0625
     18 H          -2.1005    7.3341   -0.4952 H       1  LIG1        0.0624
     19 C          -0.4099    9.4129   -0.0231 C.ar    1  LIG1        0.0465
     20 C           0.3449   10.4914   -0.4335 C.ar    1  LIG1       -0.0364
     21 C          -0.4412   11.6612   -0.2408 C.ar    1  LIG1       -0.0438
     22 C          -1.6456   11.2578    0.2828 C.ar    1  LIG1        0.0022
     23 N          -1.6171    9.8994    0.4022 N.ar    1  LIG1       -0.3607
     24 H          -2.3341    9.3373    0.8314 H       1  LIG1        0.1653
     25 H          -2.5095   11.8257    0.5814 H       1  LIG1        0.0807
     26 H           1.3320   10.4333   -0.8608 H       1  LIG1        0.0639
     27 H          -0.1606   12.6752   -0.4681 H       1  LIG1        0.0633
@<TRIPOS>BOND
     1    26    20    1
     2    18    15    1
     3    27    21    1
     4    16    14    1
     5    20    21   ar
     6    20    19   ar
     7    15    14   ar
     8    15    12   ar
     9    21    22   ar
    10    14    11   ar
    11     6     1    1
    12     5     1   ar
    13     5     4   ar
    14     1     2   ar
    15    19    12    1
    16    19    23   ar
    17    12    10   ar
    18    11     4    1
    19    11     9   ar
    20     4     3   ar
    21     2     7    1
    22     2     3   ar
    23     3     8    1
    24    10     9   ar
    25    10    13    1
    26     9    17    1
    27    22    23   ar
    28    22    25    1
    29    23    24    1
