@<TRIPOS>MOLECULE
mol_data/opt/m06hf/geoms/mol2/1244.out
 29 31 0 0 0
SMALL
GASTEIGER

@<TRIPOS>ATOM
      1 C           0.3251    1.6669   -0.2766 C.ar    1  LIG1        0.0926
      2 C           1.6278    1.6779    0.0928 C.ar    1  LIG1       -0.0233
      3 C           1.9714    3.0618    0.2739 C.ar    1  LIG1       -0.0159
      4 C           0.8440    3.7734   -0.0015 C.ar    1  LIG1        0.1348
      5 O          -0.1552    2.9250   -0.3360 O.2     1  LIG1       -0.4629
      6 H          -0.3664    0.8799   -0.5204 H       1  LIG1        0.1029
      7 H           2.2673    0.8217    0.2217 H       1  LIG1        0.0649
      8 H           2.9283    3.4585    0.5665 H       1  LIG1        0.0655
      9 C           1.4907    6.1545    0.3583 C.ar    1  LIG1       -0.0505
     10 C           1.1810    7.5074    0.3585 C.ar    1  LIG1       -0.0534
     11 C           0.5257    5.2100   -0.0023 C.ar    1  LIG1        0.0173
     12 C          -0.0957    7.9501   -0.0027 C.ar    1  LIG1       -0.0178
     13 H           1.9274    8.2291    0.6661 H       1  LIG1        0.0624
     14 C          -0.7516    5.6447   -0.3640 C.ar    1  LIG1       -0.0505
     15 C          -1.0551    7.0004   -0.3643 C.ar    1  LIG1       -0.0534
     16 H          -1.4982    4.9167   -0.6513 H       1  LIG1        0.0625
     17 H           2.4815    5.8325    0.6505 H       1  LIG1        0.0625
     18 H          -2.0401    7.3295   -0.6707 H       1  LIG1        0.0624
     19 C           0.4760   10.3413   -0.5105 C.ar    1  LIG1       -0.0540
     20 C           0.1672   11.6979   -0.5034 C.ar    1  LIG1       -0.0612
     21 C          -0.4265    9.4050    0.0015 C.ar    1  LIG1       -0.0179
     22 C          -1.0500   12.1353    0.0123 C.ar    1  LIG1       -0.0617
     23 H           0.8731   12.4111   -0.9090 H       1  LIG1        0.0618
     24 C          -1.6453    9.8528    0.5188 C.ar    1  LIG1       -0.0540
     25 C          -1.9558   11.2089    0.5226 C.ar    1  LIG1       -0.0612
     26 H          -2.3390    9.1358    0.9407 H       1  LIG1        0.0624
     27 H          -1.2911   13.1903    0.0164 H       1  LIG1        0.0618
     28 H           1.4115   10.0002   -0.9368 H       1  LIG1        0.0624
     29 H          -2.9007   11.5418    0.9319 H       1  LIG1        0.0618
@<TRIPOS>BOND
     1    28    19    1
     2    23    20    1
     3    18    15    1
     4    16    14    1
     5     6     1    1
     6    19    20   ar
     7    19    21   ar
     8    20    22   ar
     9    15    14   ar
    10    15    12   ar
    11    14    11   ar
    12     5     1   ar
    13     5     4   ar
    14     1     2   ar
    15    12    21    1
    16    12    10   ar
    17    11     4    1
    18    11     9   ar
    19     4     3   ar
    20    21    24   ar
    21    22    27    1
    22    22    25   ar
    23     2     7    1
    24     2     3   ar
    25     3     8    1
    26     9    10   ar
    27     9    17    1
    28    10    13    1
    29    24    25   ar
    30    24    26    1
    31    25    29    1
