@<TRIPOS>MOLECULE
mol_data/opt/m06hf/geoms/mol2/1244-.out
 29 31 0 0 0
SMALL
GASTEIGER

@<TRIPOS>ATOM
      1 C           0.3005    1.6684   -0.2722 C.ar    1  LIG1        0.0926
      2 C           1.6032    1.6704    0.0976 C.ar    1  LIG1       -0.0233
      3 C           1.9568    3.0519    0.2774 C.ar    1  LIG1       -0.0159
      4 C           0.8347    3.7714    0.0010 C.ar    1  LIG1        0.1348
      5 O          -0.1706    2.9300   -0.3330 O.2     1  LIG1       -0.4629
      6 H          -0.3965    0.8862   -0.5155 H       1  LIG1        0.1029
      7 H           2.2364    0.8097    0.2275 H       1  LIG1        0.0649
      8 H           2.9165    3.4419    0.5699 H       1  LIG1        0.0655
      9 C           1.4984    6.1481    0.3587 C.ar    1  LIG1       -0.0505
     10 C           1.1985    7.5032    0.3575 C.ar    1  LIG1       -0.0534
     11 C           0.5267    5.2102   -0.0014 C.ar    1  LIG1        0.0173
     12 C          -0.0747    7.9548   -0.0047 C.ar    1  LIG1       -0.0178
     13 H           1.9500    8.2198    0.6649 H       1  LIG1        0.0624
     14 C          -0.7472    5.6538   -0.3641 C.ar    1  LIG1       -0.0505
     15 C          -1.0408    7.0118   -0.3658 C.ar    1  LIG1       -0.0534
     16 H          -1.4989    4.9310   -0.6511 H       1  LIG1        0.0625
     17 H           2.4867    5.8192    0.6518 H       1  LIG1        0.0625
     18 H          -2.0233    7.3477   -0.6730 H       1  LIG1        0.0624
     19 C          -1.6107    9.8692    0.5143 C.ar    1  LIG1       -0.0540
     20 C          -1.9113   11.2275    0.5166 C.ar    1  LIG1       -0.0612
     21 C          -0.3950    9.4120   -0.0020 C.ar    1  LIG1       -0.0179
     22 C          -0.9987   12.1468    0.0059 C.ar    1  LIG1       -0.0617
     23 H          -2.8540   11.5676    0.9252 H       1  LIG1        0.0618
     24 C           0.5146   10.3412   -0.5146 C.ar    1  LIG1       -0.0540
     25 C           0.2156   11.7001   -0.5089 C.ar    1  LIG1       -0.0612
     26 H           1.4477    9.9930   -0.9400 H       1  LIG1        0.0624
     27 H          -1.2320   13.2036    0.0089 H       1  LIG1        0.0618
     28 H          -2.3098    9.1577    0.9366 H       1  LIG1        0.0624
     29 H           0.9268   12.4078   -0.9148 H       1  LIG1        0.0618
@<TRIPOS>BOND
     1    26    24    1
     2    29    25    1
     3    18    15    1
     4    16    14    1
     5     6     1    1
     6    24    25   ar
     7    24    21   ar
     8    25    22   ar
     9    15    14   ar
    10    15    12   ar
    11    14    11   ar
    12     5     1   ar
    13     5     4   ar
    14     1     2   ar
    15    12    21    1
    16    12    10   ar
    17    21    19   ar
    18    11     4    1
    19    11     9   ar
    20     4     3   ar
    21    22    27    1
    22    22    20   ar
    23     2     7    1
    24     2     3   ar
    25     3     8    1
    26    10     9   ar
    27    10    13    1
    28     9    17    1
    29    19    20   ar
    30    19    28    1
    31    20    23    1
