@<TRIPOS>MOLECULE
mol_data/opt/m06hf/geoms/mol2/1244-4-.out
 39 42 0 0 0
SMALL
GASTEIGER

@<TRIPOS>ATOM
      1 C           0.4090    1.5791   -0.4812 C.ar    1  LIG1        0.0926
      2 C           1.5953    1.5598    0.1720 C.ar    1  LIG1       -0.0233
      3 C           1.8861    2.9295    0.4956 C.ar    1  LIG1       -0.0159
      4 C           0.8465    3.6640    0.0121 C.ar    1  LIG1        0.1348
      5 O          -0.0490    2.8429   -0.5823 O.2     1  LIG1       -0.4629
      6 H          -0.2079    0.8118   -0.9138 H       1  LIG1        0.1029
      7 H           2.1922    0.6927    0.3963 H       1  LIG1        0.0649
      8 H           2.7555    3.3042    1.0077 H       1  LIG1        0.0655
      9 C           1.3226    6.0002    0.7381 C.ar    1  LIG1       -0.0505
     10 C           1.0284    7.3562    0.7291 C.ar    1  LIG1       -0.0534
     11 C           0.5369    5.1022    0.0107 C.ar    1  LIG1        0.0173
     12 C          -0.0563    7.8492   -0.0042 C.ar    1  LIG1       -0.0178
     13 H           1.6265    8.0389    1.3198 H       1  LIG1        0.0624
     14 C          -0.5505    5.5866   -0.7207 C.ar    1  LIG1       -0.0505
     15 C          -0.8397    6.9453   -0.7269 C.ar    1  LIG1       -0.0534
     16 H          -1.1579    4.8953   -1.2894 H       1  LIG1        0.0625
     17 H           2.1547    5.6367    1.3271 H       1  LIG1        0.0625
     18 H          -1.6678    7.3137   -1.3197 H       1  LIG1        0.0624
     19 C          -1.6905    9.7545    0.0790 C.ar    1  LIG1       -0.0535
     20 C          -1.9811   11.1136    0.0753 C.ar    1  LIG1       -0.0535
     21 C          -0.3693    9.3072   -0.0091 C.ar    1  LIG1       -0.0178
     22 C          -0.9582   12.0620   -0.0087 C.ar    1  LIG1       -0.0178
     23 H          -3.0110   11.4443    0.1252 H       1  LIG1        0.0624
     24 C           0.6533   10.2558   -0.0987 C.ar    1  LIG1       -0.0535
     25 C           0.3630   11.6149   -0.0946 C.ar    1  LIG1       -0.0535
     26 H           1.6806    9.9254   -0.1875 H       1  LIG1        0.0624
     27 H          -2.4931    9.0330    0.1678 H       1  LIG1        0.0624
     28 H           1.1678   12.3376   -0.1440 H       1  LIG1        0.0624
     29 C          -2.2169   14.0424    0.8815 C.ar    1  LIG1       -0.0540
     30 C          -2.5088   15.4027    0.8847 C.ar    1  LIG1       -0.0612
     31 C          -1.2701   13.5215   -0.0051 C.ar    1  LIG1       -0.0179
     32 C          -1.8549   16.2607    0.0041 C.ar    1  LIG1       -0.0617
     33 H          -3.2392   15.7934    1.5812 H       1  LIG1        0.0618
     34 C          -0.6199   14.3893   -0.8871 C.ar    1  LIG1       -0.0540
     35 C          -0.9087   15.7503   -0.8811 C.ar    1  LIG1       -0.0612
     36 H           0.0954   13.9894   -1.5952 H       1  LIG1        0.0624
     37 H          -2.0809   17.3190    0.0076 H       1  LIG1        0.0618
     38 H          -2.7054   13.3808    1.5862 H       1  LIG1        0.0624
     39 H          -0.4025   16.4097   -1.5742 H       1  LIG1        0.0618
@<TRIPOS>BOND
     1    36    34    1
     2    39    35    1
     3    18    15    1
     4    16    14    1
     5     6     1    1
     6    34    35   ar
     7    34    31   ar
     8    35    32   ar
     9    15    14   ar
    10    15    12   ar
    11    14    11   ar
    12     5     1   ar
    13     5     4   ar
    14     1     2   ar
    15    26    24    1
    16    28    25    1
    17    24    25   ar
    18    24    21   ar
    19    25    22   ar
    20    21    12    1
    21    21    19   ar
    22    22    31    1
    23    22    20   ar
    24    31    29   ar
    25    12    10   ar
    26    32    37    1
    27    32    30   ar
    28    11     4    1
    29    11     9   ar
    30     4     3   ar
    31    20    19   ar
    32    20    23    1
    33    19    27    1
    34     2     7    1
    35     2     3   ar
    36     3     8    1
    37    10     9   ar
    38    10    13    1
    39     9    17    1
    40    29    30   ar
    41    29    38    1
    42    30    33    1
