@<TRIPOS>MOLECULE
mol_data/opt/m06hf/geoms/mol2/1244-12-.out
 36 39 0 0 0
SMALL
GASTEIGER

@<TRIPOS>ATOM
      1 C           0.3366    1.6099   -0.3748 C.ar    1  LIG1        0.0926
      2 C           1.5934    1.5994    0.1300 C.ar    1  LIG1       -0.0233
      3 C           1.9276    2.9751    0.3765 C.ar    1  LIG1       -0.0159
      4 C           0.8413    3.7045   -0.0007 C.ar    1  LIG1        0.1348
      5 O          -0.1239    2.8742   -0.4572 O.2     1  LIG1       -0.4629
      6 H          -0.3315    0.8358   -0.7076 H       1  LIG1        0.1029
      7 H           2.2084    0.7340    0.3071 H       1  LIG1        0.0649
      8 H           2.8507    3.3549    0.7790 H       1  LIG1        0.0655
      9 C           1.4746    6.0711    0.4599 C.ar    1  LIG1       -0.0505
     10 C           1.1792    7.4271    0.4571 C.ar    1  LIG1       -0.0534
     11 C           0.5370    5.1439   -0.0026 C.ar    1  LIG1        0.0173
     12 C          -0.0572    7.8885   -0.0059 C.ar    1  LIG1       -0.0178
     13 H           1.9025    8.1368    0.8392 H       1  LIG1        0.0624
     14 C          -0.6994    5.5982   -0.4676 C.ar    1  LIG1       -0.0505
     15 C          -0.9902    6.9568   -0.4677 C.ar    1  LIG1       -0.0534
     16 H          -1.4236    4.8831   -0.8338 H       1  LIG1        0.0625
     17 H           2.4331    5.7332    0.8314 H       1  LIG1        0.0625
     18 H          -1.9420    7.3028   -0.8510 H       1  LIG1        0.0624
     19 C          -1.6083    9.8068    0.4578 C.ar    1  LIG1       -0.0534
     20 C          -1.9036   11.1628    0.4618 C.ar    1  LIG1       -0.0505
     21 C          -0.3718    9.3458   -0.0053 C.ar    1  LIG1       -0.0178
     22 C          -0.9660   12.0904    0.0002 C.ar    1  LIG1        0.0173
     23 H          -2.8623   11.5004    0.8333 H       1  LIG1        0.0625
     24 C           0.5613   10.2779   -0.4661 C.ar    1  LIG1       -0.0534
     25 C           0.2705   11.6364   -0.4649 C.ar    1  LIG1       -0.0505
     26 H           1.5132    9.9322   -0.8495 H       1  LIG1        0.0624
     27 H          -2.3317    9.0968    0.8392 H       1  LIG1        0.0624
     28 H           0.9948   12.3519   -0.8304 H       1  LIG1        0.0625
     29 C          -1.2703   13.5298    0.0033 C.ar    1  LIG1        0.1348
     30 C          -2.3566   14.2589    0.3809 C.ar    1  LIG1       -0.0159
     31 C          -2.0224   15.6348    0.1356 C.ar    1  LIG1       -0.0233
     32 C          -0.7656   15.6247   -0.3690 C.ar    1  LIG1        0.0926
     33 O          -0.3050   14.3605   -0.4523 O.2     1  LIG1       -0.4629
     34 H          -0.0974   16.3991   -0.7010 H       1  LIG1        0.1029
     35 H          -3.2798   13.8787    0.7829 H       1  LIG1        0.0655
     36 H          -2.6374   16.5000    0.3133 H       1  LIG1        0.0649
@<TRIPOS>BOND
     1    18    15    1
     2    26    24    1
     3    16    14    1
     4    28    25    1
     5     6     1    1
     6    34    32    1
     7    15    14   ar
     8    15    12   ar
     9    14    11   ar
    10    24    25   ar
    11    24    21   ar
    12    25    22   ar
    13     5     1   ar
    14     5     4   ar
    15    33    32   ar
    16    33    29   ar
    17     1     2   ar
    18    32    31   ar
    19    12    21    1
    20    12    10   ar
    21    21    19   ar
    22    11     4    1
    23    11     9   ar
    24     4     3   ar
    25    22    29    1
    26    22    20   ar
    27    29    30   ar
    28     2     7    1
    29     2     3   ar
    30    31    36    1
    31    31    30   ar
    32     3     8    1
    33    30    35    1
    34    10     9   ar
    35    10    13    1
    36    19    20   ar
    37    19    27    1
    38     9    17    1
    39    20    23    1
