@<TRIPOS>MOLECULE
mol_data/opt/m06hf/geoms/mol2/1248-.out
 25 27 0 0 0
SMALL
GASTEIGER

@<TRIPOS>ATOM
      1 C           0.2658    1.7110   -0.0011 C.ar    1  LIG1        0.0926
      2 C           1.6208    1.7307   -0.0011 C.ar    1  LIG1       -0.0233
      3 C           1.9913    3.1178   -0.0002 C.ar    1  LIG1       -0.0159
      4 C           0.8260    3.8230    0.0002 C.ar    1  LIG1        0.1348
      5 O          -0.2211    2.9670   -0.0003 O.2     1  LIG1       -0.4629
      6 H          -0.4605    0.9176   -0.0016 H       1  LIG1        0.1029
      7 H           2.2765    0.8776   -0.0017 H       1  LIG1        0.0649
      8 H           2.9892    3.5215    0.0001 H       1  LIG1        0.0655
      9 C           1.5389    6.2090    0.0018 C.ar    1  LIG1       -0.0504
     10 C           1.2408    7.5628    0.0027 C.ar    1  LIG1       -0.0503
     11 C           0.5120    5.2590    0.0011 C.ar    1  LIG1        0.0173
     12 C          -0.0922    7.9805    0.0029 C.ar    1  LIG1        0.0227
     13 H           2.0298    8.3024    0.0032 H       1  LIG1        0.0625
     14 C          -0.8201    5.6836    0.0013 C.ar    1  LIG1       -0.0504
     15 C          -1.1218    7.0384    0.0022 C.ar    1  LIG1       -0.0503
     16 H          -1.6123    4.9478    0.0008 H       1  LIG1        0.0625
     17 H           2.5724    5.8901    0.0017 H       1  LIG1        0.0625
     18 H          -2.1493    7.3754    0.0023 H       1  LIG1        0.0625
     19 C          -0.4137    9.4279    0.0038 C.ar    1  LIG1        0.2033
     20 N          -1.7003    9.7912    0.0039 N.ar    1  LIG1       -0.1258
     21 C          -0.9651   11.9162    0.0053 C.ar    1  LIG1        0.1605
     22 N           0.5986   10.3008    0.0044 N.ar    1  LIG1       -0.1258
     23 N          -1.9819   11.0587    0.0047 N.ar    1  LIG1       -0.1339
     24 N           0.3184   11.5689    0.0051 N.ar    1  LIG1       -0.1339
     25 H          -1.1996   12.9701    0.0059 H       1  LIG1        0.1085
@<TRIPOS>BOND
     1     7     2    1
     2     6     1    1
     3     2     1   ar
     4     2     3   ar
     5     1     5   ar
     6     5     4   ar
     7     3     8    1
     8     3     4   ar
     9     4    11    1
    10    16    14    1
    11    11    14   ar
    12    11     9   ar
    13    14    15   ar
    14    17     9    1
    15     9    10   ar
    16    15    18    1
    17    15    12   ar
    18    10    12   ar
    19    10    13    1
    20    12    19    1
    21    19    20   ar
    22    19    22   ar
    23    20    23   ar
    24    22    24   ar
    25    23    21   ar
    26    24    21   ar
    27    21    25    1
