@<TRIPOS>MOLECULE
mol_data/opt/m06hf/geoms/mol2/125-413.out
 34 37 0 0 0
SMALL
GASTEIGER

@<TRIPOS>ATOM
      1 C           0.1951    1.5895   -0.0845 C.ar    1  LIG1        0.0926
      2 C           1.5367    1.6124   -0.2683 C.ar    1  LIG1       -0.0233
      3 C           1.9117    2.9999   -0.2537 C.ar    1  LIG1       -0.0154
      4 C           0.7590    3.6970   -0.0630 C.ar    1  LIG1        0.1413
      5 O          -0.2846    2.8448    0.0394 O.2     1  LIG1       -0.4624
      6 H          -0.5266    0.7946   -0.0221 H       1  LIG1        0.1029
      7 H           2.1826    0.7611   -0.3965 H       1  LIG1        0.0649
      8 H           2.8996    3.4137   -0.3660 H       1  LIG1        0.0655
      9 C           0.4505    5.1182    0.0472 C.ar    1  LIG1        0.0550
     10 C          -0.7630    5.6777    0.3254 C.ar    1  LIG1       -0.0434
     11 C          -0.7087    7.1056    0.3632 C.ar    1  LIG1       -0.0462
     12 C           0.5385    7.6016    0.1117 C.ar    1  LIG1        0.0200
     13 S           1.6669    6.3200   -0.1867 S.2     1  LIG1       -0.0852
     14 H          -1.6494    5.0885    0.5061 H       1  LIG1        0.0630
     15 H          -1.5534    7.7361    0.5996 H       1  LIG1        0.0629
     16 C           2.2159    9.4190    0.5327 C.ar    1  LIG1       -0.0529
     17 C           2.5882   10.7560    0.4996 C.ar    1  LIG1       -0.0520
     18 C           0.9603    9.0177    0.0645 C.ar    1  LIG1       -0.0113
     19 C           1.7179   11.7252   -0.0084 C.ar    1  LIG1       -0.0017
     20 H           3.5469   11.0635    0.8955 H       1  LIG1        0.0624
     21 C           0.0924    9.9848   -0.4519 C.ar    1  LIG1       -0.0529
     22 C           0.4671   11.3214   -0.4878 C.ar    1  LIG1       -0.0520
     23 H          -0.8625    9.6782   -0.8585 H       1  LIG1        0.0624
     24 H           2.8895    8.6836    0.9554 H       1  LIG1        0.0624
     25 H          -0.1985   12.0513   -0.9327 H       1  LIG1        0.0624
     26 C           2.1256   13.1416   -0.0429 C.ar    1  LIG1        0.0465
     27 C           3.3542   13.7205   -0.2799 C.ar    1  LIG1       -0.0364
     28 C           3.1826   15.1307   -0.2071 C.ar    1  LIG1       -0.0438
     29 C           1.8578   15.3637    0.0749 C.ar    1  LIG1        0.0022
     30 N           1.2297   14.1562    0.1630 N.ar    1  LIG1       -0.3607
     31 H           0.2719   14.0146    0.4407 H       1  LIG1        0.1653
     32 H           1.3203   16.2840    0.2232 H       1  LIG1        0.0807
     33 H           4.2583   13.1852   -0.5185 H       1  LIG1        0.0639
     34 H           3.9380   15.8837   -0.3538 H       1  LIG1        0.0633
@<TRIPOS>BOND
     1    25    22    1
     2    23    21    1
     3    33    27    1
     4    22    21   ar
     5    22    19   ar
     6    21    18   ar
     7     7     2    1
     8     8     3    1
     9    34    28    1
    10    27    28   ar
    11    27    26   ar
    12     2     3   ar
    13     2     1   ar
    14     3     4   ar
    15    28    29   ar
    16    13     9   ar
    17    13    12   ar
    18     1     6    1
    19     1     5   ar
    20     4     5   ar
    21     4     9    1
    22    26    19    1
    23    26    30   ar
    24    19    17   ar
    25     9    10   ar
    26    18    12    1
    27    18    16   ar
    28    29    30   ar
    29    29    32    1
    30    12    11   ar
    31    30    31    1
    32    10    11   ar
    33    10    14    1
    34    11    15    1
    35    17    16   ar
    36    17    20    1
    37    16    24    1
