@<TRIPOS>MOLECULE
mol_data/opt/m06hf/geoms/mol2/125-13-.out
 24 26 0 0 0
SMALL
GASTEIGER

@<TRIPOS>ATOM
      1 C           0.2034    1.6926   -0.0099 C.ar    1  LIG1        0.0926
      2 C           1.5410    1.7086   -0.2198 C.ar    1  LIG1       -0.0233
      3 C           1.9178    3.0954   -0.2501 C.ar    1  LIG1       -0.0154
      4 C           0.7696    3.7990   -0.0560 C.ar    1  LIG1        0.1413
      5 O          -0.2727    2.9519    0.0887 O.2     1  LIG1       -0.4624
      6 H          -0.5188    0.9017    0.0876 H       1  LIG1        0.1029
      7 H           2.1834    0.8531   -0.3372 H       1  LIG1        0.0649
      8 H           2.9034    3.5052   -0.3928 H       1  LIG1        0.0655
      9 C           0.4666    5.2232    0.0239 C.ar    1  LIG1        0.0550
     10 C          -0.7356    5.7957    0.3188 C.ar    1  LIG1       -0.0433
     11 C          -0.6736    7.2254    0.3432 C.ar    1  LIG1       -0.0448
     12 C           0.5678    7.7091    0.0549 C.ar    1  LIG1        0.0361
     13 S           1.6841    6.4161   -0.2683 S.2     1  LIG1       -0.0837
     14 H          -1.6210    5.2144    0.5286 H       1  LIG1        0.0630
     15 H          -1.5058    7.8679    0.5894 H       1  LIG1        0.0630
     16 C           0.9884    9.1078   -0.0292 C.ar    1  LIG1        0.0531
     17 C           0.3158   10.2138   -0.5028 C.ar    1  LIG1       -0.0359
     18 C           1.1789   11.3321   -0.3464 C.ar    1  LIG1       -0.0438
     19 C           2.3478   10.8692    0.2100 C.ar    1  LIG1        0.0022
     20 N           2.2224    9.5244    0.3940 N.ar    1  LIG1       -0.3603
     21 H           2.9008    8.9279    0.8410 H       1  LIG1        0.1653
     22 H           3.2491   11.3871    0.4887 H       1  LIG1        0.0807
     23 H          -0.6699   10.1994   -0.9368 H       1  LIG1        0.0639
     24 H           0.9717   12.3524   -0.6207 H       1  LIG1        0.0633
@<TRIPOS>BOND
     1    23    17    1
     2    24    18    1
     3    17    18   ar
     4    17    16   ar
     5     8     3    1
     6    18    19   ar
     7     7     2    1
     8    13     9   ar
     9    13    12   ar
    10     3     2   ar
    11     3     4   ar
    12     2     1   ar
    13     4     9    1
    14     4     5   ar
    15    16    12    1
    16    16    20   ar
    17     1     6    1
    18     1     5   ar
    19     9    10   ar
    20    12    11   ar
    21    19    20   ar
    22    19    22    1
    23    10    11   ar
    24    10    14    1
    25    11    15    1
    26    20    21    1
