@<TRIPOS>MOLECULE
mol_data/opt/m06hf/geoms/mol2/125-.out
 16 17 0 0 0
SMALL
GASTEIGER

@<TRIPOS>ATOM
      1 C           0.2258    1.7749   -0.0001 C.ar    1  LIG1        0.0926
      2 C           1.5800    1.7927   -0.0002 C.ar    1  LIG1       -0.0233
      3 C           1.9545    3.1809   -0.0000 C.ar    1  LIG1       -0.0154
      4 C           0.7894    3.8825    0.0001 C.ar    1  LIG1        0.1413
      5 O          -0.2612    3.0332    0.0000 O.2     1  LIG1       -0.4624
      6 H          -0.5010    0.9823   -0.0001 H       1  LIG1        0.1029
      7 H           2.2332    0.9373   -0.0004 H       1  LIG1        0.0649
      8 H           2.9494    3.5939    0.0000 H       1  LIG1        0.0655
      9 C           0.4747    5.3077    0.0003 C.ar    1  LIG1        0.0544
     10 C          -0.7644    5.8789    0.0005 C.ar    1  LIG1       -0.0440
     11 C          -0.7049    7.3111    0.0005 C.ar    1  LIG1       -0.0540
     12 C           0.5707    7.7792    0.0002 C.ar    1  LIG1       -0.0236
     13 S           1.7249    6.4987    0.0005 S.2     1  LIG1       -0.0936
     14 H           0.9058    8.8032    0.0001 H       1  LIG1        0.0693
     15 H          -1.6744    5.2985    0.0005 H       1  LIG1        0.0630
     16 H          -1.5748    7.9503    0.0005 H       1  LIG1        0.0623
@<TRIPOS>BOND
     1     7     2    1
     2     2     1   ar
     3     2     3   ar
     4     6     1    1
     5     1     5   ar
     6     3     8    1
     7     3     4   ar
     8     5     4   ar
     9    14    12    1
    10     4     9    1
    11    12    11   ar
    12    12    13   ar
    13     9    10   ar
    14     9    13   ar
    15    11    10   ar
    16    11    16    1
    17    10    15    1
