@<TRIPOS>MOLECULE
mol_data/opt/m06hf/geoms/mol2/125-13.out
 24 26 0 0 0
SMALL
GASTEIGER

@<TRIPOS>ATOM
      1 C           0.2379    1.6922   -0.0004 C.ar    1  LIG1        0.0926
      2 C           1.5918    1.7249   -0.0074 C.ar    1  LIG1       -0.0233
      3 C           1.9518    3.1167   -0.0086 C.ar    1  LIG1       -0.0154
      4 C           0.7783    3.8063   -0.0009 C.ar    1  LIG1        0.1413
      5 O          -0.2633    2.9461    0.0040 O.2     1  LIG1       -0.4624
      6 H          -0.4811    0.8926    0.0028 H       1  LIG1        0.1029
      7 H           2.2554    0.8778   -0.0116 H       1  LIG1        0.0649
      8 H           2.9422    3.5392   -0.0139 H       1  LIG1        0.0655
      9 C           0.4494    5.2265    0.0023 C.ar    1  LIG1        0.0550
     10 C          -0.7938    5.7865    0.0099 C.ar    1  LIG1       -0.0433
     11 C          -0.7503    7.2161    0.0114 C.ar    1  LIG1       -0.0448
     12 C           0.5233    7.7125    0.0047 C.ar    1  LIG1        0.0361
     13 S           1.6881    6.4322   -0.0041 S.2     1  LIG1       -0.0837
     14 H          -1.6995    5.1987    0.0150 H       1  LIG1        0.0630
     15 H          -1.6393    7.8302    0.0194 H       1  LIG1        0.0630
     16 C           0.9763    9.1027    0.0030 C.ar    1  LIG1        0.0531
     17 C           2.2502    9.6337    0.0163 C.ar    1  LIG1       -0.0359
     18 C           2.1226   11.0479    0.0047 C.ar    1  LIG1       -0.0438
     19 C           0.7780   11.3325   -0.0127 C.ar    1  LIG1        0.0022
     20 N           0.0974   10.1515   -0.0149 N.ar    1  LIG1       -0.3603
     21 H          -0.9048   10.0613   -0.0309 H       1  LIG1        0.1653
     22 H           0.2585   12.2747   -0.0252 H       1  LIG1        0.0807
     23 H           3.1664    9.0666    0.0328 H       1  LIG1        0.0639
     24 H           2.9214   11.7694    0.0100 H       1  LIG1        0.0633
@<TRIPOS>BOND
     1    21    20    1
     2    22    19    1
     3    20    19   ar
     4    20    16   ar
     5     8     3    1
     6    19    18   ar
     7     7     2    1
     8     3     2   ar
     9     3     4   ar
    10     2     1   ar
    11    13     9   ar
    12    13    12   ar
    13     4     9    1
    14     4     5   ar
    15     1     6    1
    16     1     5   ar
    17     9    10   ar
    18    16    12    1
    19    16    17   ar
    20    12    11   ar
    21    18    24    1
    22    18    17   ar
    23    10    11   ar
    24    10    14    1
    25    11    15    1
    26    17    23    1
