@<TRIPOS>MOLECULE
mol_data/opt/m06hf/geoms/mol2/125-84-.out
 32 35 0 0 0
SMALL
GASTEIGER

@<TRIPOS>ATOM
      1 C           0.2066    1.6687    0.0004 C.ar    1  LIG1        0.0926
      2 C           1.5616    1.6830    0.0003 C.ar    1  LIG1       -0.0233
      3 C           1.9400    3.0686    0.0003 C.ar    1  LIG1       -0.0154
      4 C           0.7754    3.7735    0.0003 C.ar    1  LIG1        0.1413
      5 O          -0.2776    2.9271    0.0003 O.2     1  LIG1       -0.4624
      6 H          -0.5212    0.8769    0.0004 H       1  LIG1        0.1029
      7 H           2.2137    0.8271    0.0003 H       1  LIG1        0.0649
      8 H           2.9371    3.4758    0.0003 H       1  LIG1        0.0655
      9 C           0.4597    5.1970    0.0003 C.ar    1  LIG1        0.0551
     10 C          -0.7901    5.7553    0.0004 C.ar    1  LIG1       -0.0433
     11 C          -0.7442    7.1790    0.0002 C.ar    1  LIG1       -0.0431
     12 C           0.5370    7.6540   -0.0000 C.ar    1  LIG1        0.0605
     13 S           1.7092    6.3860    0.0002 S.2     1  LIG1       -0.0820
     14 H          -1.6943    5.1661    0.0005 H       1  LIG1        0.0630
     15 H          -1.6052    7.8303    0.0002 H       1  LIG1        0.0630
     16 C           0.9563    9.0536   -0.0003 C.ar    1  LIG1        0.2099
     17 N           2.2653    9.3157   -0.0005 N.ar    1  LIG1       -0.1247
     18 C           1.7018   11.5048   -0.0009 C.ar    1  LIG1        0.2034
     19 N           0.0096    9.9996   -0.0004 N.ar    1  LIG1       -0.1247
     20 N           2.6414   10.5550   -0.0008 N.ar    1  LIG1       -0.1252
     21 N           0.3909   11.2357   -0.0007 N.ar    1  LIG1       -0.1252
     22 C           1.1741   13.9411   -0.0014 C.ar    1  LIG1       -0.0509
     23 C           1.5842   15.2694   -0.0017 C.ar    1  LIG1       -0.0611
     24 C           2.1316   12.9248   -0.0013 C.ar    1  LIG1        0.0226
     25 C           2.9417   15.5833   -0.0019 C.ar    1  LIG1       -0.0617
     26 H           0.8442   16.0587   -0.0018 H       1  LIG1        0.0618
     27 C           3.4927   13.2346   -0.0015 C.ar    1  LIG1       -0.0509
     28 C           3.8937   14.5655   -0.0018 C.ar    1  LIG1       -0.0611
     29 H           4.2173   12.4317   -0.0014 H       1  LIG1        0.0625
     30 H           3.2579   16.6183   -0.0022 H       1  LIG1        0.0618
     31 H           0.1244   13.6807   -0.0012 H       1  LIG1        0.0625
     32 H           4.9478   14.8083   -0.0020 H       1  LIG1        0.0618
@<TRIPOS>BOND
     1    30    25    1
     2    32    28    1
     3    25    28   ar
     4    25    23   ar
     5    26    23    1
     6    28    27   ar
     7    23    22   ar
     8    27    29    1
     9    27    24   ar
    10    22    24   ar
    11    22    31    1
    12    24    18    1
    13    18    20   ar
    14    18    21   ar
    15    20    17   ar
    16    21    19   ar
    17    17    16   ar
    18    19    16   ar
    19    16    12    1
    20    12    13   ar
    21    12    11   ar
    22    15    11    1
    23    13     9   ar
    24    11    10   ar
    25     9     4    1
    26     9    10   ar
    27     7     2    1
    28     4     5   ar
    29     4     3   ar
    30     2     3   ar
    31     2     1   ar
    32     5     1   ar
    33     3     8    1
    34    10    14    1
    35     1     6    1
