@<TRIPOS>MOLECULE
mol_data/opt/m06hf/geoms/mol2/125-13-8.out
 30 33 0 0 0
SMALL
GASTEIGER

@<TRIPOS>ATOM
      1 C           0.1997    1.6666    0.0010 C.ar    1  LIG1        0.0926
      2 C           1.5544    1.6858   -0.0009 C.ar    1  LIG1       -0.0233
      3 C           1.9280    3.0732   -0.0011 C.ar    1  LIG1       -0.0154
      4 C           0.7614    3.7740    0.0000 C.ar    1  LIG1        0.1413
      5 O          -0.2890    2.9247    0.0013 O.2     1  LIG1       -0.4624
      6 H          -0.5276    0.8746    0.0019 H       1  LIG1        0.1029
      7 H           2.2098    0.8326   -0.0017 H       1  LIG1        0.0649
      8 H           2.9232    3.4850   -0.0022 H       1  LIG1        0.0655
      9 C           0.4451    5.1963    0.0002 C.ar    1  LIG1        0.0550
     10 C          -0.7934    5.7692    0.0015 C.ar    1  LIG1       -0.0433
     11 C          -0.7390    7.1966    0.0013 C.ar    1  LIG1       -0.0448
     12 C           0.5384    7.6803   -0.0000 C.ar    1  LIG1        0.0362
     13 S           1.6938    6.3892   -0.0011 S.2     1  LIG1       -0.0837
     14 H          -1.7028    5.1873    0.0025 H       1  LIG1        0.0630
     15 H          -1.6126    7.8315    0.0023 H       1  LIG1        0.0630
     16 C           0.9595    9.0800   -0.0007 C.ar    1  LIG1        0.0537
     17 C           0.1910   10.2388   -0.0012 C.ar    1  LIG1       -0.0352
     18 C           1.0770   11.3355   -0.0017 C.ar    1  LIG1       -0.0326
     19 C           2.3570   10.8140   -0.0013 C.ar    1  LIG1        0.0880
     20 N           2.2660    9.4533   -0.0007 N.ar    1  LIG1       -0.3512
     21 H           3.0790    8.8509   -0.0003 H       1  LIG1        0.1660
     22 H          -0.8847   10.2760   -0.0013 H       1  LIG1        0.0639
     23 H           0.8359   12.3851   -0.0022 H       1  LIG1        0.0640
     24 C           3.6559   11.4626   -0.0014 C.ar    1  LIG1        0.2193
     25 N           4.7358   10.6743   -0.0010 N.ar    1  LIG1       -0.1243
     26 C           5.9453   12.5673   -0.0017 C.ar    1  LIG1        0.1605
     27 N           3.7030   12.8023   -0.0020 N.ar    1  LIG1       -0.1243
     28 N           5.9061   11.2393   -0.0011 N.ar    1  LIG1       -0.1338
     29 N           4.8721   13.3599   -0.0021 N.ar    1  LIG1       -0.1338
     30 H           6.9154   13.0404   -0.0017 H       1  LIG1        0.1085
@<TRIPOS>BOND
     1    23    18    1
     2     8     3    1
     3    29    27   ar
     4    29    26   ar
     5    27    24   ar
     6     7     2    1
     7    30    26    1
     8    18    19   ar
     9    18    17   ar
    10    26    28   ar
    11    24    19    1
    12    24    25   ar
    13    22    17    1
    14    19    20   ar
    15    17    16   ar
    16    13    12   ar
    17    13     9   ar
    18     3     2   ar
    19     3     4   ar
    20    28    25   ar
    21     2     1   ar
    22    20    16   ar
    23    20    21    1
    24    16    12    1
    25    12    11   ar
    26     4     9    1
    27     4     5   ar
    28     9    10   ar
    29     1     5   ar
    30     1     6    1
    31    11    10   ar
    32    11    15    1
    33    10    14    1
