@<TRIPOS>MOLECULE
mol_data/opt/m06hf/geoms/mol2/125-124.out
 33 36 0 0 0
SMALL
GASTEIGER

@<TRIPOS>ATOM
      1 C           0.3185    1.5961   -0.0002 C.ar    1  LIG1        0.0926
      2 C           1.6724    1.6354   -0.0007 C.ar    1  LIG1       -0.0233
      3 C           2.0255    3.0287   -0.0003 C.ar    1  LIG1       -0.0154
      4 C           0.8489    3.7124   -0.0001 C.ar    1  LIG1        0.1413
      5 O          -0.1883    2.8467    0.0000 O.2     1  LIG1       -0.4624
      6 H          -0.3962    0.7924   -0.0001 H       1  LIG1        0.1029
      7 H           2.3393    0.7912   -0.0010 H       1  LIG1        0.0649
      8 H           3.0145    3.4556   -0.0005 H       1  LIG1        0.0655
      9 C           0.5075    5.1298    0.0002 C.ar    1  LIG1        0.0551
     10 C          -0.7425    5.6752    0.0004 C.ar    1  LIG1       -0.0433
     11 C          -0.7182    7.1045    0.0005 C.ar    1  LIG1       -0.0433
     12 C           0.5505    7.6077    0.0003 C.ar    1  LIG1        0.0551
     13 S           1.7384    6.3479    0.0002 S.2     1  LIG1       -0.0821
     14 H          -1.6392    5.0745    0.0005 H       1  LIG1        0.0630
     15 H          -1.5951    7.7342    0.0007 H       1  LIG1        0.0630
     16 C           0.9404    9.0110    0.0004 C.ar    1  LIG1        0.1422
     17 C           2.1400    9.6550    0.0003 C.ar    1  LIG1       -0.0147
     18 C           1.8360   11.0550    0.0004 C.ar    1  LIG1       -0.0152
     19 C           0.4775   11.1542    0.0006 C.ar    1  LIG1        0.1357
     20 O          -0.0641    9.9137    0.0006 O.2     1  LIG1       -0.4543
     21 H           3.1146    9.1959    0.0001 H       1  LIG1        0.0656
     22 H           2.5409   11.8683    0.0004 H       1  LIG1        0.0656
     23 C           0.0223   13.6028    0.0010 C.ar    1  LIG1       -0.0511
     24 C          -0.8661   14.6706    0.0011 C.ar    1  LIG1       -0.0611
     25 C          -0.4572   12.2898    0.0008 C.ar    1  LIG1        0.0173
     26 C          -2.2407   14.4400    0.0012 C.ar    1  LIG1       -0.0617
     27 H          -0.4861   15.6837    0.0012 H       1  LIG1        0.0618
     28 C          -1.8355   12.0601    0.0009 C.ar    1  LIG1       -0.0511
     29 C          -2.7202   13.1330    0.0011 C.ar    1  LIG1       -0.0611
     30 H          -2.2028   11.0430    0.0008 H       1  LIG1        0.0625
     31 H          -2.9307   15.2731    0.0013 H       1  LIG1        0.0618
     32 H           1.0885   13.7890    0.0009 H       1  LIG1        0.0625
     33 H          -3.7862   12.9465    0.0011 H       1  LIG1        0.0618
@<TRIPOS>BOND
     1     7     2    1
     2     2     3   ar
     3     2     1   ar
     4     8     3    1
     5     3     4   ar
     6     1     6    1
     7     1     5   ar
     8     4     5   ar
     9     4     9    1
    10    21    17    1
    11     9    13   ar
    12     9    10   ar
    13    13    12   ar
    14    17    16   ar
    15    17    18   ar
    16    12    16    1
    17    12    11   ar
    18    16    20   ar
    19    22    18    1
    20    18    19   ar
    21    10    14    1
    22    10    11   ar
    23    11    15    1
    24    20    19   ar
    25    19    25    1
    26    30    28    1
    27    25    28   ar
    28    25    23   ar
    29    28    29   ar
    30    32    23    1
    31    23    24   ar
    32    29    33    1
    33    29    26   ar
    34    24    26   ar
    35    24    27    1
    36    26    31    1
