@<TRIPOS>MOLECULE
mol_data/opt/m06hf/geoms/mol2/125-135-.out
 31 34 0 0 0
SMALL
GASTEIGER

@<TRIPOS>ATOM
      1 C           0.3082    1.6257   -0.2546 C.ar    1  LIG1        0.0926
      2 C           1.6212    1.7028   -0.5763 C.ar    1  LIG1       -0.0233
      3 C           1.9575    3.0995   -0.5235 C.ar    1  LIG1       -0.0154
      4 C           0.8133    3.7462   -0.1732 C.ar    1  LIG1        0.1413
      5 O          -0.1900    2.8560   -0.0094 O.2     1  LIG1       -0.4624
      6 H          -0.3815    0.8056   -0.1629 H       1  LIG1        0.1029
      7 H           2.2719    0.8809   -0.8206 H       1  LIG1        0.0649
      8 H           2.9150    3.5523   -0.7186 H       1  LIG1        0.0655
      9 C           0.4816    5.1484    0.0506 C.ar    1  LIG1        0.0550
     10 C          -0.7314    5.6599    0.4114 C.ar    1  LIG1       -0.0433
     11 C          -0.6992    7.0807    0.5713 C.ar    1  LIG1       -0.0448
     12 C           0.5326    7.6148    0.3189 C.ar    1  LIG1        0.0362
     13 S           1.6703    6.3903   -0.1287 S.2     1  LIG1       -0.0837
     14 H          -1.6014    5.0418    0.5724 H       1  LIG1        0.0630
     15 H          -1.5426    7.6719    0.8980 H       1  LIG1        0.0630
     16 C           0.9414    9.0173    0.3812 C.ar    1  LIG1        0.0536
     17 C           2.1289    9.6033    0.7718 C.ar    1  LIG1       -0.0353
     18 C           1.9681   11.0068    0.6464 C.ar    1  LIG1       -0.0353
     19 C           0.6879   11.2341    0.1822 C.ar    1  LIG1        0.0536
     20 N           0.0815   10.0199    0.0293 N.ar    1  LIG1       -0.3533
     21 H          -0.8105    9.8781   -0.4192 H       1  LIG1        0.1659
     22 H           2.9919    9.0757    1.1425 H       1  LIG1        0.0639
     23 H           2.6837   11.7708    0.9004 H       1  LIG1        0.0639
     24 C          -0.0213   12.4778   -0.1229 C.ar    1  LIG1        0.0355
     25 C          -1.3489   12.7545    0.0454 C.ar    1  LIG1       -0.0455
     26 C          -1.6913   14.0835   -0.3669 C.ar    1  LIG1       -0.0541
     27 C          -0.6153   14.7773   -0.8256 C.ar    1  LIG1       -0.0237
     28 S           0.8206   13.8279   -0.7910 S.2     1  LIG1       -0.0952
     29 H          -0.5835   15.7925   -1.1854 H       1  LIG1        0.0693
     30 H          -2.0476   12.0551    0.4817 H       1  LIG1        0.0629
     31 H          -2.6871   14.4962   -0.3061 H       1  LIG1        0.0623
@<TRIPOS>BOND
     1    29    27    1
     2    27    28   ar
     3    27    26   ar
     4     7     2    1
     5    28    24   ar
     6     8     3    1
     7     2     3   ar
     8     2     1   ar
     9     3     4   ar
    10    21    20    1
    11    26    31    1
    12    26    25   ar
    13     1     6    1
    14     1     5   ar
    15     4     5   ar
    16     4     9    1
    17    13     9   ar
    18    13    12   ar
    19    24    25   ar
    20    24    19    1
    21    20    19   ar
    22    20    16   ar
    23    25    30    1
    24     9    10   ar
    25    19    18   ar
    26    12    16    1
    27    12    11   ar
    28    16    17   ar
    29    10    11   ar
    30    10    14    1
    31    11    15    1
    32    18    17   ar
    33    18    23    1
    34    17    22    1
