@<TRIPOS>MOLECULE
mol_data/opt/m06hf/geoms/mol2/125-412-.out
 33 36 0 0 0
SMALL
GASTEIGER

@<TRIPOS>ATOM
      1 C           0.2005    1.6055   -0.0389 C.ar    1  LIG1        0.0926
      2 C           1.4888    1.6415   -0.4552 C.ar    1  LIG1       -0.0233
      3 C           1.8490    3.0324   -0.4990 C.ar    1  LIG1       -0.0154
      4 C           0.7419    3.7180   -0.1037 C.ar    1  LIG1        0.1413
      5 O          -0.2601    2.8557    0.1759 O.2     1  LIG1       -0.4624
      6 H          -0.4921    0.8038    0.1451 H       1  LIG1        0.1029
      7 H           2.1086    0.7969   -0.7016 H       1  LIG1        0.0649
      8 H           2.7975    3.4562   -0.7835 H       1  LIG1        0.0655
      9 C           0.4484    5.1359    0.0690 C.ar    1  LIG1        0.0550
     10 C          -0.7245    5.6891    0.4946 C.ar    1  LIG1       -0.0434
     11 C          -0.6637    7.1163    0.5569 C.ar    1  LIG1       -0.0462
     12 C           0.5486    7.6169    0.1784 C.ar    1  LIG1        0.0200
     13 S           1.6340    6.3444   -0.2731 S.2     1  LIG1       -0.0852
     14 H          -1.5863    5.0960    0.7613 H       1  LIG1        0.0630
     15 H          -1.4751    7.7420    0.8993 H       1  LIG1        0.0629
     16 C           2.2649    9.4191    0.4757 C.ar    1  LIG1       -0.0529
     17 C           2.6472   10.7529    0.4181 C.ar    1  LIG1       -0.0505
     18 C           0.9709    9.0323    0.1161 C.ar    1  LIG1       -0.0113
     19 C           1.7377   11.7293    0.0046 C.ar    1  LIG1        0.0173
     20 H           3.6490   11.0463    0.7006 H       1  LIG1        0.0625
     21 C           0.0660   10.0122   -0.3066 C.ar    1  LIG1       -0.0529
     22 C           0.4418   11.3461   -0.3535 C.ar    1  LIG1       -0.0505
     23 H          -0.9281    9.7181   -0.6176 H       1  LIG1        0.0624
     24 H           2.9698    8.6736    0.8221 H       1  LIG1        0.0624
     25 H          -0.2718   12.0904   -0.6816 H       1  LIG1        0.0625
     26 C           2.1439   13.1412   -0.0540 C.ar    1  LIG1        0.1348
     27 C           1.5122   14.2828   -0.4436 C.ar    1  LIG1       -0.0159
     28 C           2.4580   15.3485   -0.2597 C.ar    1  LIG1       -0.0233
     29 C           3.5809   14.7656    0.2238 C.ar    1  LIG1        0.0926
     30 O           3.4006   13.4357    0.3499 O.2     1  LIG1       -0.4629
     31 H           4.5447   15.1450    0.5130 H       1  LIG1        0.1029
     32 H           0.5064   14.3671   -0.8174 H       1  LIG1        0.0655
     33 H           2.3123   16.3954   -0.4621 H       1  LIG1        0.0649
@<TRIPOS>BOND
     1    32    27    1
     2     8     3    1
     3     7     2    1
     4    25    22    1
     5    23    21    1
     6     3     2   ar
     7     3     4   ar
     8    33    28    1
     9     2     1   ar
    10    27    28   ar
    11    27    26   ar
    12    22    21   ar
    13    22    19   ar
    14    21    18   ar
    15    13     9   ar
    16    13    12   ar
    17    28    29   ar
    18     4     9    1
    19     4     5   ar
    20    26    19    1
    21    26    30   ar
    22     1     6    1
    23     1     5   ar
    24    19    17   ar
    25     9    10   ar
    26    18    12    1
    27    18    16   ar
    28    12    11   ar
    29    29    30   ar
    30    29    31    1
    31    17    16   ar
    32    17    20    1
    33    16    24    1
    34    10    11   ar
    35    10    14    1
    36    11    15    1
