@<TRIPOS>MOLECULE
mol_data/opt/m06hf/geoms/mol2/125-4.out
 26 28 0 0 0
SMALL
GASTEIGER

@<TRIPOS>ATOM
      1 C           0.1974    1.6728   -0.0651 C.ar    1  LIG1        0.0926
      2 C           1.5338    1.6907   -0.2837 C.ar    1  LIG1       -0.0233
      3 C           1.9144    3.0768   -0.2781 C.ar    1  LIG1       -0.0154
      4 C           0.7698    3.7780   -0.0570 C.ar    1  LIG1        0.1413
      5 O          -0.2742    2.9299    0.0712 O.2     1  LIG1       -0.4624
      6 H          -0.5264    0.8815    0.0158 H       1  LIG1        0.1029
      7 H           2.1726    0.8369   -0.4292 H       1  LIG1        0.0649
      8 H           2.9005    3.4879   -0.4139 H       1  LIG1        0.0655
      9 C           0.4706    5.2005    0.0630 C.ar    1  LIG1        0.0550
     10 C          -0.7237    5.7639    0.4076 C.ar    1  LIG1       -0.0434
     11 C          -0.6650    7.1923    0.4365 C.ar    1  LIG1       -0.0462
     12 C           0.5654    7.6859    0.1111 C.ar    1  LIG1        0.0200
     13 S           1.6750    6.3998   -0.2428 S.2     1  LIG1       -0.0852
     14 H          -1.5997    5.1775    0.6411 H       1  LIG1        0.0630
     15 H          -1.4956    7.8235    0.7177 H       1  LIG1        0.0629
     16 C           2.2799    9.4951    0.3822 C.ar    1  LIG1       -0.0535
     17 C           2.6542   10.8323    0.3017 C.ar    1  LIG1       -0.0612
     18 C           0.9856    9.1021    0.0290 C.ar    1  LIG1       -0.0113
     19 C           1.7386   11.7926   -0.1207 C.ar    1  LIG1       -0.0617
     20 H           3.6585   11.1244    0.5785 H       1  LIG1        0.0618
     21 C           0.0744   10.0695   -0.4076 C.ar    1  LIG1       -0.0535
     22 C           0.4467   11.4072   -0.4720 C.ar    1  LIG1       -0.0612
     23 H          -0.9169    9.7636   -0.7161 H       1  LIG1        0.0624
     24 H           2.0303   12.8328   -0.1796 H       1  LIG1        0.0618
     25 H           2.9867    8.7554    0.7378 H       1  LIG1        0.0624
     26 H          -0.2676   12.1465   -0.8101 H       1  LIG1        0.0618
@<TRIPOS>BOND
     1    26    22    1
     2    23    21    1
     3    22    21   ar
     4    22    19   ar
     5     7     2    1
     6     8     3    1
     7    21    18   ar
     8     2     3   ar
     9     2     1   ar
    10     3     4   ar
    11    13     9   ar
    12    13    12   ar
    13    24    19    1
    14    19    17   ar
    15     1     6    1
    16     1     5   ar
    17     4     9    1
    18     4     5   ar
    19    18    12    1
    20    18    16   ar
    21     9    10   ar
    22    12    11   ar
    23    17    16   ar
    24    17    20    1
    25    16    25    1
    26    10    11   ar
    27    10    14    1
    28    11    15    1
