@<TRIPOS>MOLECULE
mol_data/opt/m06hf/geoms/mol2/125-8.out
 22 24 0 0 0
SMALL
GASTEIGER

@<TRIPOS>ATOM
      1 C           0.2159    1.7354    0.0001 C.ar    1  LIG1        0.0926
      2 C           1.5711    1.7476   -0.0000 C.ar    1  LIG1       -0.0233
      3 C           1.9513    3.1325   -0.0001 C.ar    1  LIG1       -0.0154
      4 C           0.7878    3.8390    0.0000 C.ar    1  LIG1        0.1413
      5 O          -0.2666    2.9947    0.0002 O.2     1  LIG1       -0.4624
      6 H          -0.5143    0.9459    0.0002 H       1  LIG1        0.1029
      7 H           2.2218    0.8907   -0.0001 H       1  LIG1        0.0649
      8 H           2.9483    3.5397   -0.0002 H       1  LIG1        0.0655
      9 C           0.4781    5.2633    0.0001 C.ar    1  LIG1        0.0551
     10 C          -0.7710    5.8260    0.0002 C.ar    1  LIG1       -0.0433
     11 C          -0.7194    7.2487    0.0002 C.ar    1  LIG1       -0.0431
     12 C           0.5642    7.7179    0.0001 C.ar    1  LIG1        0.0605
     13 S           1.7300    6.4470   -0.0002 S.2     1  LIG1       -0.0820
     14 H          -1.6772    5.2398    0.0004 H       1  LIG1        0.0630
     15 H          -1.5781    7.9037    0.0004 H       1  LIG1        0.0630
     16 C           0.9866    9.1166    0.0001 C.ar    1  LIG1        0.2099
     17 N           2.2979    9.3737   -0.0001 N.ar    1  LIG1       -0.1253
     18 C           1.7265   11.5481    0.0001 C.ar    1  LIG1        0.1605
     19 N           0.0370   10.0594    0.0003 N.ar    1  LIG1       -0.1253
     20 N           2.6750   10.6168   -0.0001 N.ar    1  LIG1       -0.1339
     21 N           0.4173   11.2996    0.0003 N.ar    1  LIG1       -0.1339
     22 H           2.0393   12.5814    0.0001 H       1  LIG1        0.1085
@<TRIPOS>BOND
     1     8     3    1
     2    13     9   ar
     3    13    12   ar
     4    17    20   ar
     5    17    16   ar
     6     3     2   ar
     7     3     4   ar
     8    20    18   ar
     9     7     2    1
    10     2     1   ar
    11     4     9    1
    12     4     5   ar
    13     9    10   ar
    14    12    16    1
    15    12    11   ar
    16    16    19   ar
    17    22    18    1
    18     1     5   ar
    19     1     6    1
    20    18    21   ar
    21    10    11   ar
    22    10    14    1
    23    11    15    1
    24    19    21   ar
