@<TRIPOS>MOLECULE
mol_data/opt/m06hf/geoms/mol2/125-12.out
 23 25 0 0 0
SMALL
GASTEIGER

@<TRIPOS>ATOM
      1 C           0.2349    1.7130    0.0000 C.ar    1  LIG1        0.0926
      2 C           1.5891    1.7414   -0.0001 C.ar    1  LIG1       -0.0233
      3 C           1.9532    3.1318   -0.0001 C.ar    1  LIG1       -0.0154
      4 C           0.7817    3.8248    0.0000 C.ar    1  LIG1        0.1413
      5 O          -0.2623    2.9679    0.0001 O.2     1  LIG1       -0.4624
      6 H          -0.4867    0.9157    0.0001 H       1  LIG1        0.1029
      7 H           2.2502    0.8924   -0.0001 H       1  LIG1        0.0649
      8 H           2.9451    3.5507   -0.0001 H       1  LIG1        0.0655
      9 C           0.4584    5.2461    0.0001 C.ar    1  LIG1        0.0551
     10 C          -0.7834    5.8121    0.0003 C.ar    1  LIG1       -0.0433
     11 C          -0.7347    7.2409    0.0003 C.ar    1  LIG1       -0.0433
     12 C           0.5427    7.7211    0.0001 C.ar    1  LIG1        0.0551
     13 S           1.7063    6.4426   -0.0002 S.2     1  LIG1       -0.0821
     14 H          -1.6907    5.2268    0.0005 H       1  LIG1        0.0630
     15 H          -1.6002    7.8865    0.0005 H       1  LIG1        0.0630
     16 C           0.9619    9.1171    0.0001 C.ar    1  LIG1        0.1413
     17 C           2.1778    9.7288    0.0001 C.ar    1  LIG1       -0.0154
     18 C           1.9091   11.1408    0.0000 C.ar    1  LIG1       -0.0233
     19 C           0.5599   11.2613    0.0000 C.ar    1  LIG1        0.0926
     20 O          -0.0215   10.0431    0.0000 O.2     1  LIG1       -0.4624
     21 H          -0.1057   12.1058    0.0000 H       1  LIG1        0.1029
     22 H           3.1389    9.2434    0.0001 H       1  LIG1        0.0655
     23 H           2.6264   11.9429    0.0000 H       1  LIG1        0.0649
@<TRIPOS>BOND
     1    13     9   ar
     2    13    12   ar
     3     8     3    1
     4     7     2    1
     5     3     2   ar
     6     3     4   ar
     7     2     1   ar
     8     4     9    1
     9     4     5   ar
    10    21    19    1
    11    19    18   ar
    12    19    20   ar
    13    23    18    1
    14     1     5   ar
    15     1     6    1
    16    18    17   ar
    17    20    16   ar
    18    17    16   ar
    19    17    22    1
    20    16    12    1
    21     9    10   ar
    22    12    11   ar
    23    10    11   ar
    24    10    14    1
    25    11    15    1
