@<TRIPOS>MOLECULE
mol_data/opt/m06hf/geoms/mol2/125-5.out
 23 25 0 0 0
SMALL
GASTEIGER

@<TRIPOS>ATOM
      1 C           0.2040    1.6929    0.0006 C.ar    1  LIG1        0.0926
      2 C           1.5585    1.7046   -0.0008 C.ar    1  LIG1       -0.0233
      3 C           1.9399    3.0906   -0.0001 C.ar    1  LIG1       -0.0154
      4 C           0.7773    3.7980    0.0001 C.ar    1  LIG1        0.1413
      5 O          -0.2772    2.9539    0.0005 O.2     1  LIG1       -0.4624
      6 H          -0.5274    0.9046    0.0010 H       1  LIG1        0.1029
      7 H           2.2090    0.8473   -0.0015 H       1  LIG1        0.0649
      8 H           2.9369    3.4972   -0.0003 H       1  LIG1        0.0655
      9 C           0.4706    5.2230    0.0002 C.ar    1  LIG1        0.0550
     10 C          -0.7650    5.8013    0.0006 C.ar    1  LIG1       -0.0434
     11 C          -0.6997    7.2287    0.0005 C.ar    1  LIG1       -0.0457
     12 C           0.5805    7.7057    0.0000 C.ar    1  LIG1        0.0266
     13 S           1.7283    6.4066   -0.0002 S.2     1  LIG1       -0.0847
     14 H          -1.6792    5.2270    0.0009 H       1  LIG1        0.0630
     15 H          -1.5716    7.8677    0.0007 H       1  LIG1        0.0629
     16 C           1.0353    9.0977   -0.0003 C.ar    1  LIG1        0.0259
     17 C           2.3181    9.5690   -0.0002 C.ar    1  LIG1       -0.0464
     18 C           2.3853   10.9991   -0.0005 C.ar    1  LIG1       -0.0541
     19 C           1.1542   11.5756   -0.0007 C.ar    1  LIG1       -0.0237
     20 S          -0.1024   10.4015   -0.0010 S.2     1  LIG1       -0.0961
     21 H           0.9096   12.6256   -0.0008 H       1  LIG1        0.0693
     22 H           3.1880    8.9272    0.0001 H       1  LIG1        0.0629
     23 H           3.3090   11.5580   -0.0004 H       1  LIG1        0.0623
@<TRIPOS>BOND
     1     7     2    1
     2    20    19   ar
     3    20    16   ar
     4    21    19    1
     5     2     3   ar
     6     2     1   ar
     7    19    18   ar
     8    18    23    1
     9    18    17   ar
    10     8     3    1
    11    16    17   ar
    12    16    12    1
    13    17    22    1
    14    13    12   ar
    15    13     9   ar
    16     3     4   ar
    17    12    11   ar
    18     4     9    1
    19     4     5   ar
    20     9    10   ar
    21    11    10   ar
    22    11    15    1
    23     5     1   ar
    24    10    14    1
    25     1     6    1
