@<TRIPOS>MOLECULE
mol_data/opt/m06hf/geoms/mol2/125-4-.out
 26 28 0 0 0
SMALL
GASTEIGER

@<TRIPOS>ATOM
      1 C           0.1707    1.6736   -0.0622 C.ar    1  LIG1        0.0926
      2 C           1.5070    1.6806   -0.2814 C.ar    1  LIG1       -0.0233
      3 C           1.8989    3.0635   -0.2773 C.ar    1  LIG1       -0.0154
      4 C           0.7601    3.7742   -0.0563 C.ar    1  LIG1        0.1413
      5 O          -0.2906    2.9347    0.0732 O.2     1  LIG1       -0.4624
      6 H          -0.5595    0.8884    0.0198 H       1  LIG1        0.1029
      7 H           2.1389    0.8215   -0.4264 H       1  LIG1        0.0649
      8 H           2.8882    3.4665   -0.4139 H       1  LIG1        0.0655
      9 C           0.4726    5.1992    0.0627 C.ar    1  LIG1        0.0550
     10 C          -0.7170    5.7725    0.4076 C.ar    1  LIG1       -0.0434
     11 C          -0.6468    7.2003    0.4353 C.ar    1  LIG1       -0.0462
     12 C           0.5875    7.6838    0.1092 C.ar    1  LIG1        0.0200
     13 S           1.6864    6.3885   -0.2443 S.2     1  LIG1       -0.0852
     14 H          -1.5976    5.1934    0.6420 H       1  LIG1        0.0630
     15 H          -1.4720    7.8384    0.7164 H       1  LIG1        0.0629
     16 C           0.1153   10.0709   -0.4103 C.ar    1  LIG1       -0.0535
     17 C           0.4983   11.4056   -0.4753 C.ar    1  LIG1       -0.0612
     18 C           1.0190    9.0965    0.0262 C.ar    1  LIG1       -0.0113
     19 C           1.7934   11.7808   -0.1250 C.ar    1  LIG1       -0.0617
     20 H          -0.2102   12.1505   -0.8133 H       1  LIG1        0.0618
     21 C           2.3167    9.4793    0.3785 C.ar    1  LIG1       -0.0535
     22 C           2.7015   10.8134    0.2972 C.ar    1  LIG1       -0.0612
     23 H           3.0177    8.7340    0.7340 H       1  LIG1        0.0624
     24 H           2.0934   12.8186   -0.1844 H       1  LIG1        0.0618
     25 H          -0.8785    9.7728   -0.7182 H       1  LIG1        0.0624
     26 H           3.7083   11.0976    0.5733 H       1  LIG1        0.0618
@<TRIPOS>BOND
     1    20    17    1
     2    25    16    1
     3    17    16   ar
     4    17    19   ar
     5     7     2    1
     6     8     3    1
     7    16    18   ar
     8     2     3   ar
     9     2     1   ar
    10     3     4   ar
    11    13     9   ar
    12    13    12   ar
    13    24    19    1
    14    19    22   ar
    15     1     6    1
    16     1     5   ar
    17     4     9    1
    18     4     5   ar
    19    18    12    1
    20    18    21   ar
    21     9    10   ar
    22    12    11   ar
    23    22    21   ar
    24    22    26    1
    25    21    23    1
    26    10    11   ar
    27    10    14    1
    28    11    15    1
