@<TRIPOS>MOLECULE
mol_data/opt/m06hf/geoms/mol2/125.out
 16 17 0 0 0
SMALL
GASTEIGER

@<TRIPOS>ATOM
      1 C           0.2210    1.8033    0.0001 C.ar    1  LIG1        0.0926
      2 C           1.5751    1.7840    0.0001 C.ar    1  LIG1       -0.0233
      3 C           1.9900    3.1602   -0.0002 C.ar    1  LIG1       -0.0154
      4 C           0.8451    3.8960   -0.0002 C.ar    1  LIG1        0.1413
      5 O          -0.2281    3.0756    0.0000 O.2     1  LIG1       -0.4624
      6 H          -0.5300    1.0336    0.0002 H       1  LIG1        0.1029
      7 H           2.2049    0.9116    0.0002 H       1  LIG1        0.0649
      8 H           2.9958    3.5433   -0.0003 H       1  LIG1        0.0655
      9 C           0.5766    5.3310   -0.0003 C.ar    1  LIG1        0.0544
     10 C           1.4804    6.3538   -0.0007 C.ar    1  LIG1       -0.0440
     11 C           0.8511    7.6398   -0.0008 C.ar    1  LIG1       -0.0540
     12 C          -0.5066    7.5515   -0.0006 C.ar    1  LIG1       -0.0236
     13 S          -1.0485    5.9187    0.0001 S.2     1  LIG1       -0.0936
     14 H          -1.2231    8.3565   -0.0006 H       1  LIG1        0.0693
     15 H           2.5492    6.1997   -0.0009 H       1  LIG1        0.0630
     16 H           1.3904    8.5749   -0.0011 H       1  LIG1        0.0623
@<TRIPOS>BOND
     1    16    11    1
     2    15    10    1
     3    11    10   ar
     4    11    12   ar
     5    10     9   ar
     6    14    12    1
     7    12    13   ar
     8     9     4    1
     9     9    13   ar
    10     8     3    1
    11     3     4   ar
    12     3     2   ar
    13     4     5   ar
    14     5     1   ar
    15     2     1   ar
    16     2     7    1
    17     1     6    1
