@<TRIPOS>MOLECULE
mol_data/opt/m06hf/geoms/mol2/12513-.out
 24 26 0 0 0
SMALL
GASTEIGER

@<TRIPOS>ATOM
      1 C           0.3178    1.7487    0.3974 C.ar    1  LIG1        0.0926
      2 C           1.6331    1.7200    0.0751 C.ar    1  LIG1       -0.0233
      3 C           2.0136    3.0862   -0.1565 C.ar    1  LIG1       -0.0154
      4 C           0.8901    3.8270    0.0495 C.ar    1  LIG1        0.1413
      5 O          -0.1388    3.0182    0.3853 O.2     1  LIG1       -0.4624
      6 H          -0.3977    0.9867    0.6492 H       1  LIG1        0.1029
      7 H           2.2576    0.8464    0.0044 H       1  LIG1        0.0649
      8 H           2.9825    3.4578   -0.4423 H       1  LIG1        0.0655
      9 C           0.6090    5.2560   -0.0259 C.ar    1  LIG1        0.0550
     10 C           1.4909    6.2707   -0.2645 C.ar    1  LIG1       -0.0433
     11 C           0.8558    7.5495   -0.3060 C.ar    1  LIG1       -0.0448
     12 C          -0.4914    7.4780   -0.0853 C.ar    1  LIG1        0.0361
     13 S          -1.0018    5.8497    0.1866 S.2     1  LIG1       -0.0837
     14 H           2.5482    6.1148   -0.4203 H       1  LIG1        0.0630
     15 H           1.3703    8.4737   -0.5275 H       1  LIG1        0.0630
     16 C          -1.4584    8.5764   -0.0445 C.ar    1  LIG1        0.0531
     17 C          -2.7579    8.6631   -0.4973 C.ar    1  LIG1       -0.0359
     18 C          -3.2179    9.9771   -0.2097 C.ar    1  LIG1       -0.0438
     19 C          -2.1862   10.6435    0.4085 C.ar    1  LIG1        0.0022
     20 N          -1.1293    9.7875    0.5004 N.ar    1  LIG1       -0.3603
     21 H          -0.2563    9.9745    0.9668 H       1  LIG1        0.1653
     22 H          -2.1249   11.6477    0.7896 H       1  LIG1        0.0807
     23 H          -3.2945    7.8772   -1.0027 H       1  LIG1        0.0639
     24 H          -4.1869   10.3874   -0.4367 H       1  LIG1        0.0633
@<TRIPOS>BOND
     1    23    17    1
     2    15    11    1
     3    17    18   ar
     4    17    16   ar
     5     8     3    1
     6    24    18    1
     7    14    10    1
     8    11    10   ar
     9    11    12   ar
    10    10     9   ar
    11    18    19   ar
    12     3     4   ar
    13     3     2   ar
    14    12    16    1
    15    12    13   ar
    16    16    20   ar
    17     9     4    1
    18     9    13   ar
    19     7     2    1
    20     4     5   ar
    21     2     1   ar
    22     5     1   ar
    23     1     6    1
    24    19    20   ar
    25    19    22    1
    26    20    21    1
