@<TRIPOS>MOLECULE
mol_data/opt/m06hf/geoms/mol2/125138-.out
 30 33 0 0 0
SMALL
GASTEIGER

@<TRIPOS>ATOM
      1 C           0.4940    1.7353    0.5953 C.ar    1  LIG1        0.0926
      2 C           1.7329    1.7035    0.0479 C.ar    1  LIG1       -0.0233
      3 C           2.0383    3.0593   -0.3185 C.ar    1  LIG1       -0.0154
      4 C           0.9536    3.7970    0.0442 C.ar    1  LIG1        0.1413
      5 O           0.0160    2.9971    0.5975 O.2     1  LIG1       -0.4624
      6 H          -0.1500    0.9810    1.0106 H       1  LIG1        0.1029
      7 H           2.3534    0.8345   -0.0855 H       1  LIG1        0.0649
      8 H           2.9342    3.4260   -0.7885 H       1  LIG1        0.0655
      9 C           0.6360    5.2172   -0.0483 C.ar    1  LIG1        0.0550
     10 C           1.4499    6.2362   -0.4554 C.ar    1  LIG1       -0.0433
     11 C           0.7918    7.5037   -0.4409 C.ar    1  LIG1       -0.0448
     12 C          -0.5012    7.4197   -0.0117 C.ar    1  LIG1        0.0362
     13 S          -0.9342    5.7920    0.3880 S.2     1  LIG1       -0.0837
     14 H           2.4749    6.0885   -0.7617 H       1  LIG1        0.0630
     15 H           1.2469    8.4321   -0.7522 H       1  LIG1        0.0630
     16 C          -1.4509    8.5202    0.1548 C.ar    1  LIG1        0.0537
     17 C          -1.2326    9.8267    0.5699 C.ar    1  LIG1       -0.0352
     18 C          -2.4820   10.4841    0.5682 C.ar    1  LIG1       -0.0326
     19 C          -3.4198    9.5560    0.1576 C.ar    1  LIG1        0.0880
     20 N          -2.7802    8.3765   -0.0867 N.ar    1  LIG1       -0.3512
     21 H          -3.2454    7.5532   -0.4451 H       1  LIG1        0.1660
     22 H          -0.2797   10.2302    0.8666 H       1  LIG1        0.0639
     23 H          -2.6983   11.5033    0.8411 H       1  LIG1        0.0640
     24 C          -4.8568    9.6654   -0.0276 C.ar    1  LIG1        0.2193
     25 N          -5.5054    8.5780   -0.4555 N.ar    1  LIG1       -0.1243
     26 C          -7.3729    9.8221   -0.3521 C.ar    1  LIG1        0.1605
     27 N          -5.4489   10.8380    0.2385 N.ar    1  LIG1       -0.1243
     28 N          -6.7921    8.6581   -0.6210 N.ar    1  LIG1       -0.1338
     29 N          -6.7315   10.9122    0.0718 N.ar    1  LIG1       -0.1338
     30 H          -8.4415    9.8929   -0.4861 H       1  LIG1        0.1085
@<TRIPOS>BOND
     1     8     3    1
     2    14    10    1
     3    15    11    1
     4    28    25   ar
     5    28    26   ar
     6    30    26    1
     7    25    24   ar
     8    10    11   ar
     9    10     9   ar
    10    21    20    1
    11    11    12   ar
    12    26    29   ar
    13     3     4   ar
    14     3     2   ar
    15    20    16   ar
    16    20    19   ar
    17     7     2    1
    18     9     4    1
    19     9    13   ar
    20    24    19    1
    21    24    27   ar
    22    12    16    1
    23    12    13   ar
    24     4     5   ar
    25     2     1   ar
    26    29    27   ar
    27    16    17   ar
    28    19    18   ar
    29    18    17   ar
    30    18    23    1
    31    17    22    1
    32     1     5   ar
    33     1     6    1
