@<TRIPOS>MOLECULE
mol_data/opt/m06hf/geoms/mol2/125128.out
 29 32 0 0 0
SMALL
GASTEIGER

@<TRIPOS>ATOM
      1 C           0.4248    1.6916   -0.0000 C.ar    1  LIG1        0.0926
      2 C           1.7797    1.7203   -0.0001 C.ar    1  LIG1       -0.0233
      3 C           2.1455    3.1093   -0.0002 C.ar    1  LIG1       -0.0154
      4 C           0.9745    3.8035   -0.0002 C.ar    1  LIG1        0.1413
      5 O          -0.0693    2.9466   -0.0001 O.2     1  LIG1       -0.4624
      6 H          -0.2979    0.8952    0.0001 H       1  LIG1        0.1029
      7 H           2.4398    0.8704   -0.0001 H       1  LIG1        0.0649
      8 H           3.1375    3.5263   -0.0003 H       1  LIG1        0.0655
      9 C           0.6579    5.2263   -0.0003 C.ar    1  LIG1        0.0551
     10 C           1.5346    6.2773   -0.0005 C.ar    1  LIG1       -0.0433
     11 C           0.8710    7.5366   -0.0005 C.ar    1  LIG1       -0.0433
     12 C          -0.4912    7.4075   -0.0003 C.ar    1  LIG1        0.0551
     13 S          -0.9837    5.7540   -0.0001 S.2     1  LIG1       -0.0821
     14 H           2.6078    6.1567   -0.0007 H       1  LIG1        0.0630
     15 H           1.3799    8.4894   -0.0007 H       1  LIG1        0.0630
     16 C          -1.4788    8.4767   -0.0001 C.ar    1  LIG1        0.1424
     17 C          -1.3766    9.8405   -0.0002 C.ar    1  LIG1       -0.0146
     18 C          -2.7156   10.3345    0.0000 C.ar    1  LIG1       -0.0120
     19 C          -3.5169    9.2332    0.0002 C.ar    1  LIG1        0.1760
     20 O          -2.7736    8.1095    0.0001 O.2     1  LIG1       -0.4511
     21 H          -0.4653   10.4133   -0.0003 H       1  LIG1        0.0656
     22 H          -3.0547   11.3560    0.0000 H       1  LIG1        0.0657
     23 C          -4.9714    9.1073    0.0004 C.ar    1  LIG1        0.2381
     24 N          -5.6659   10.2518    0.0004 N.ar    1  LIG1       -0.1226
     25 C          -7.5018    8.9528    0.0007 C.ar    1  LIG1        0.1605
     26 N          -5.5157    7.8892    0.0005 N.ar    1  LIG1       -0.1226
     27 N          -6.9593   10.1707    0.0006 N.ar    1  LIG1       -0.1338
     28 N          -6.8150    7.8154    0.0006 N.ar    1  LIG1       -0.1338
     29 H          -8.5796    8.8873    0.0009 H       1  LIG1        0.1085
@<TRIPOS>BOND
     1    14    10    1
     2    15    11    1
     3    10    11   ar
     4    10     9   ar
     5    11    12   ar
     6    21    17    1
     7     9     4    1
     8     9    13   ar
     9     8     3    1
    10    12    16    1
    11    12    13   ar
    12     3     4   ar
    13     3     2   ar
    14     4     5   ar
    15    17    16   ar
    16    17    18   ar
    17    16    20   ar
    18     2     7    1
    19     2     1   ar
    20     5     1   ar
    21     1     6    1
    22    18    22    1
    23    18    19   ar
    24    20    19   ar
    25    19    23    1
    26    23    24   ar
    27    23    26   ar
    28    24    27   ar
    29    26    28   ar
    30    27    25   ar
    31    28    25   ar
    32    25    29    1
