@<TRIPOS>MOLECULE
mol_data/opt/m06hf/geoms/mol2/1255.out
 23 25 0 0 0
SMALL
GASTEIGER

@<TRIPOS>ATOM
      1 C           0.2664    1.7306    0.0012 C.ar    1  LIG1        0.0926
      2 C           1.6212    1.7148    0.0001 C.ar    1  LIG1       -0.0233
      3 C           2.0330    3.0913    0.0002 C.ar    1  LIG1       -0.0154
      4 C           0.8862    3.8244   -0.0000 C.ar    1  LIG1        0.1413
      5 O          -0.1854    3.0018    0.0006 O.2     1  LIG1       -0.4624
      6 H          -0.4812    0.9578    0.0018 H       1  LIG1        0.1029
      7 H           2.2534    0.8440   -0.0001 H       1  LIG1        0.0649
      8 H           3.0389    3.4743   -0.0001 H       1  LIG1        0.0655
      9 C           0.6173    5.2570   -0.0006 C.ar    1  LIG1        0.0550
     10 C           1.5210    6.2817   -0.0017 C.ar    1  LIG1       -0.0434
     11 C           0.8959    7.5627   -0.0020 C.ar    1  LIG1       -0.0457
     12 C          -0.4704    7.4897   -0.0010 C.ar    1  LIG1        0.0266
     13 S          -1.0055    5.8445    0.0001 S.2     1  LIG1       -0.0847
     14 H           2.5906    6.1313   -0.0024 H       1  LIG1        0.0630
     15 H           1.4427    8.4937   -0.0030 H       1  LIG1        0.0629
     16 C          -1.4179    8.6102   -0.0007 C.ar    1  LIG1        0.0259
     17 C          -1.1208    9.9450    0.0007 C.ar    1  LIG1       -0.0464
     18 C          -2.2862   10.7748    0.0006 C.ar    1  LIG1       -0.0541
     19 C          -3.4385   10.0531   -0.0008 C.ar    1  LIG1       -0.0237
     20 S          -3.1312    8.3606   -0.0027 S.2     1  LIG1       -0.0961
     21 H          -4.4533   10.4157   -0.0011 H       1  LIG1        0.0693
     22 H          -0.1111   10.3278    0.0021 H       1  LIG1        0.0629
     23 H          -2.2573   11.8538    0.0018 H       1  LIG1        0.0623
@<TRIPOS>BOND
     1    15    11    1
     2    20    19   ar
     3    20    16   ar
     4    14    10    1
     5    11    10   ar
     6    11    12   ar
     7    10     9   ar
     8    21    19    1
     9    12    16    1
    10    12    13   ar
    11    19    18   ar
    12    16    17   ar
    13     9     4    1
    14     9    13   ar
    15     7     2    1
    16     8     3    1
    17     4     3   ar
    18     4     5   ar
    19     2     3   ar
    20     2     1   ar
    21     5     1   ar
    22    18    17   ar
    23    18    23    1
    24    17    22    1
    25     1     6    1
