@<TRIPOS>MOLECULE
mol_data/opt/m06hf/geoms/mol2/1258-5-.out
 29 32 0 0 0
SMALL
GASTEIGER

@<TRIPOS>ATOM
      1 C           0.3063    1.7140    0.0000 C.ar    1  LIG1        0.0926
      2 C           1.6617    1.7132   -0.0006 C.ar    1  LIG1       -0.0233
      3 C           2.0576    3.0937   -0.0005 C.ar    1  LIG1       -0.0154
      4 C           0.9017    3.8132   -0.0002 C.ar    1  LIG1        0.1413
      5 O          -0.1602    2.9789    0.0001 O.2     1  LIG1       -0.4624
      6 H          -0.4328    0.9326    0.0003 H       1  LIG1        0.1029
      7 H           2.3046    0.8502   -0.0008 H       1  LIG1        0.0649
      8 H           3.0590    3.4884   -0.0008 H       1  LIG1        0.0655
      9 C           0.6141    5.2422   -0.0002 C.ar    1  LIG1        0.0551
     10 C           1.5158    6.2747   -0.0006 C.ar    1  LIG1       -0.0433
     11 C           0.8790    7.5462   -0.0004 C.ar    1  LIG1       -0.0431
     12 C          -0.4845    7.4374    0.0001 C.ar    1  LIG1        0.0605
     13 S          -1.0173    5.7990    0.0005 S.2     1  LIG1       -0.0820
     14 H           2.5859    6.1315   -0.0010 H       1  LIG1        0.0630
     15 H           1.3882    8.4983   -0.0007 H       1  LIG1        0.0630
     16 C          -1.4466    8.5368    0.0003 C.ar    1  LIG1        0.2099
     17 N          -2.7497    8.2349    0.0008 N.ar    1  LIG1       -0.1247
     18 C          -3.1342   10.4562    0.0007 C.ar    1  LIG1        0.2099
     19 N          -0.9749    9.7883   -0.0000 N.ar    1  LIG1       -0.1247
     20 N          -3.6058    9.2054    0.0010 N.ar    1  LIG1       -0.1247
     21 N          -1.8310   10.7580    0.0002 N.ar    1  LIG1       -0.1247
     22 C          -4.0946   11.5597    0.0009 C.ar    1  LIG1        0.0598
     23 C          -5.4577   11.4614    0.0013 C.ar    1  LIG1       -0.0438
     24 C          -6.0853   12.7440    0.0015 C.ar    1  LIG1       -0.0540
     25 C          -5.1766   13.7610    0.0011 C.ar    1  LIG1       -0.0236
     26 S          -3.5566   13.1956    0.0004 S.2     1  LIG1       -0.0934
     27 H          -5.3728   14.8211    0.0011 H       1  LIG1        0.0693
     28 H          -5.9734   10.5128    0.0016 H       1  LIG1        0.0630
     29 H          -7.1541   12.8945    0.0019 H       1  LIG1        0.0623
@<TRIPOS>BOND
     1    14    10    1
     2     8     3    1
     3     7     2    1
     4    15    11    1
     5    10    11   ar
     6    10     9   ar
     7     2     3   ar
     8     2     1   ar
     9     3     4   ar
    10    11    12   ar
    11     4     9    1
    12     4     5   ar
    13     9    13   ar
    14    19    21   ar
    15    19    16   ar
    16     1     5   ar
    17     1     6    1
    18    12    16    1
    19    12    13   ar
    20    21    18   ar
    21    16    17   ar
    22    26    22   ar
    23    26    25   ar
    24    18    22    1
    25    18    20   ar
    26    17    20   ar
    27    22    23   ar
    28    25    27    1
    29    25    24   ar
    30    23    24   ar
    31    23    28    1
    32    24    29    1
