@<TRIPOS>MOLECULE
mol_data/opt/m06hf/geoms/mol2/128-124.out
 32 35 0 0 0
SMALL
GASTEIGER

@<TRIPOS>ATOM
      1 C           0.5033    1.6513    0.0000 C.ar    1  LIG1        0.0927
      2 C           1.8560    1.7841   -0.0007 C.ar    1  LIG1       -0.0232
      3 C           2.1084    3.1947   -0.0004 C.ar    1  LIG1       -0.0126
      4 C           0.8821    3.7841   -0.0002 C.ar    1  LIG1        0.1751
      5 O          -0.0916    2.8553    0.0001 O.2     1  LIG1       -0.4597
      6 H          -0.1509    0.7976    0.0002 H       1  LIG1        0.1029
      7 H           2.5798    0.9877   -0.0011 H       1  LIG1        0.0649
      8 H           3.0541    3.7088   -0.0005 H       1  LIG1        0.0656
      9 C           0.4952    5.1936   -0.0001 C.ar    1  LIG1        0.2381
     10 N          -0.7975    5.5139    0.0002 N.ar    1  LIG1       -0.1219
     11 C          -0.1150    7.6632    0.0001 C.ar    1  LIG1        0.2381
     12 N           1.4954    6.0866   -0.0003 N.ar    1  LIG1       -0.1219
     13 N          -1.1101    6.7764    0.0003 N.ar    1  LIG1       -0.1219
     14 N           1.1859    7.3395   -0.0002 N.ar    1  LIG1       -0.1219
     15 C          -0.4339    9.0873    0.0002 C.ar    1  LIG1        0.1760
     16 C           0.3674   10.1886    0.0001 C.ar    1  LIG1       -0.0120
     17 C          -0.5188   11.3084    0.0003 C.ar    1  LIG1       -0.0151
     18 C          -1.7864   10.7947    0.0005 C.ar    1  LIG1        0.1358
     19 O          -1.7300    9.4487    0.0005 O.2     1  LIG1       -0.4516
     20 H           1.4437   10.1846   -0.0002 H       1  LIG1        0.0657
     21 H          -0.2458   12.3491    0.0003 H       1  LIG1        0.0656
     22 C          -3.2737   12.7906    0.0009 C.ar    1  LIG1       -0.0511
     23 C          -4.5437   13.3539    0.0012 C.ar    1  LIG1       -0.0611
     24 C          -3.1264   11.4014    0.0008 C.ar    1  LIG1        0.0173
     25 C          -5.6729   12.5371    0.0013 C.ar    1  LIG1       -0.0617
     26 H          -4.6524   14.4303    0.0012 H       1  LIG1        0.0618
     27 C          -4.2580   10.5819    0.0010 C.ar    1  LIG1       -0.0511
     28 C          -5.5263   11.1526    0.0012 C.ar    1  LIG1       -0.0611
     29 H          -4.1349    9.5070    0.0009 H       1  LIG1        0.0625
     30 H          -6.6606   12.9791    0.0015 H       1  LIG1        0.0618
     31 H          -2.4005   13.4300    0.0008 H       1  LIG1        0.0625
     32 H          -6.3991   10.5132    0.0014 H       1  LIG1        0.0618
@<TRIPOS>BOND
     1     7     2    1
     2     2     3   ar
     3     2     1   ar
     4     8     3    1
     5     3     4   ar
     6    12    14   ar
     7    12     9   ar
     8    14    11   ar
     9     4     9    1
    10     4     5   ar
    11    20    16    1
    12     9    10   ar
    13     1     5   ar
    14     1     6    1
    15    16    15   ar
    16    16    17   ar
    17    11    15    1
    18    11    13   ar
    19    10    13   ar
    20    15    19   ar
    21    21    17    1
    22    17    18   ar
    23    19    18   ar
    24    18    24    1
    25    31    22    1
    26    24    22   ar
    27    24    27   ar
    28    29    27    1
    29    22    23   ar
    30    27    28   ar
    31    23    26    1
    32    23    25   ar
    33    28    25   ar
    34    28    32    1
    35    25    30    1
