@<TRIPOS>MOLECULE
mol_data/opt/m06hf/geoms/mol2/128-512-.out
 29 32 0 0 0
SMALL
GASTEIGER

@<TRIPOS>ATOM
      1 C           0.3023    1.7042    0.0003 C.ar    1  LIG1        0.0927
      2 C           1.6592    1.7698   -0.0003 C.ar    1  LIG1       -0.0232
      3 C           1.9819    3.1659   -0.0002 C.ar    1  LIG1       -0.0126
      4 C           0.7858    3.8157   -0.0001 C.ar    1  LIG1        0.1751
      5 O          -0.2328    2.9364    0.0003 O.2     1  LIG1       -0.4597
      6 H          -0.3949    0.8854    0.0005 H       1  LIG1        0.1029
      7 H           2.3434    0.9396   -0.0006 H       1  LIG1        0.0649
      8 H           2.9512    3.6339   -0.0004 H       1  LIG1        0.0656
      9 C           0.4737    5.2435   -0.0001 C.ar    1  LIG1        0.2381
     10 N          -0.8011    5.6336    0.0001 N.ar    1  LIG1       -0.1220
     11 C           0.0003    7.7484   -0.0002 C.ar    1  LIG1        0.2099
     12 N           1.5188    6.0820   -0.0004 N.ar    1  LIG1       -0.1220
     13 N          -1.0369    6.9100    0.0001 N.ar    1  LIG1       -0.1246
     14 N           1.2815    7.3508   -0.0004 N.ar    1  LIG1       -0.1246
     15 C          -0.2743    9.1831   -0.0002 C.ar    1  LIG1        0.0605
     16 C           0.6439   10.1953   -0.0004 C.ar    1  LIG1       -0.0431
     17 C           0.0284   11.4797   -0.0004 C.ar    1  LIG1       -0.0433
     18 C          -1.3382   11.3987   -0.0001 C.ar    1  LIG1        0.0551
     19 S          -1.8989    9.7677    0.0001 S.2     1  LIG1       -0.0820
     20 H           1.7082   10.0145   -0.0006 H       1  LIG1        0.0630
     21 H           0.5590   12.4194   -0.0006 H       1  LIG1        0.0630
     22 C          -2.2737   12.5170   -0.0000 C.ar    1  LIG1        0.1413
     23 C          -3.6321   12.6068    0.0001 C.ar    1  LIG1       -0.0154
     24 C          -3.9338   14.0110    0.0001 C.ar    1  LIG1       -0.0233
     25 C          -2.7374   14.6474    0.0000 C.ar    1  LIG1        0.0926
     26 O          -1.7284   13.7531   -0.0001 O.2     1  LIG1       -0.4624
     27 H          -2.4557   15.6854   -0.0000 H       1  LIG1        0.1029
     28 H          -4.3299   11.7863    0.0002 H       1  LIG1        0.0655
     29 H          -4.9067   14.4707    0.0002 H       1  LIG1        0.0649
@<TRIPOS>BOND
     1    20    16    1
     2    21    17    1
     3     7     2    1
     4    16    17   ar
     5    16    15   ar
     6     8     3    1
     7    14    12   ar
     8    14    11   ar
     9    17    18   ar
    10    12     9   ar
    11     2     3   ar
    12     2     1   ar
    13     3     4   ar
    14    15    11    1
    15    15    19   ar
    16    11    13   ar
    17     9     4    1
    18     9    10   ar
    19    18    22    1
    20    18    19   ar
    21    26    22   ar
    22    26    25   ar
    23     4     5   ar
    24    22    23   ar
    25    27    25    1
    26    25    24   ar
    27    13    10   ar
    28    24    23   ar
    29    24    29    1
    30    23    28    1
    31     5     1   ar
    32     1     6    1
