@<TRIPOS>MOLECULE
mol_data/opt/m06hf/geoms/mol2/128-12-.out
 22 24 0 0 0
SMALL
GASTEIGER

@<TRIPOS>ATOM
      1 C           0.2211    1.7779    0.0000 C.ar    1  LIG1        0.0927
      2 C           1.5796    1.8128   -0.0001 C.ar    1  LIG1       -0.0232
      3 C           1.9337    3.2010    0.0001 C.ar    1  LIG1       -0.0126
      4 C           0.7531    3.8774   -0.0000 C.ar    1  LIG1        0.1751
      5 O          -0.2859    3.0220   -0.0001 O.2     1  LIG1       -0.4597
      6 H          -0.4930    0.9736   -0.0000 H       1  LIG1        0.1029
      7 H           2.2430    0.9659   -0.0002 H       1  LIG1        0.0649
      8 H           2.9138    3.6467    0.0002 H       1  LIG1        0.0656
      9 C           0.4719    5.3121   -0.0001 C.ar    1  LIG1        0.2381
     10 N          -0.7983    5.7264   -0.0001 N.ar    1  LIG1       -0.1219
     11 C           0.0464    7.8202   -0.0001 C.ar    1  LIG1        0.2381
     12 N           1.5297    6.1283    0.0000 N.ar    1  LIG1       -0.1219
     13 N          -1.0114    7.0040   -0.0001 N.ar    1  LIG1       -0.1219
     14 N           1.3165    7.4059   -0.0000 N.ar    1  LIG1       -0.1219
     15 C          -0.2348    9.2549   -0.0001 C.ar    1  LIG1        0.1751
     16 C          -1.4154    9.9313   -0.0001 C.ar    1  LIG1       -0.0126
     17 C          -1.0613   11.3195   -0.0001 C.ar    1  LIG1       -0.0232
     18 C           0.2972   11.3544   -0.0001 C.ar    1  LIG1        0.0927
     19 O           0.8042   10.1103   -0.0000 O.2     1  LIG1       -0.4597
     20 H           1.0113   12.1587   -0.0001 H       1  LIG1        0.1029
     21 H          -2.3956    9.4856   -0.0001 H       1  LIG1        0.0656
     22 H          -1.7247   12.1665   -0.0001 H       1  LIG1        0.0649
@<TRIPOS>BOND
     1     7     2    1
     2     2     1   ar
     3     2     3   ar
     4    21    16    1
     5    16    17   ar
     6    16    15   ar
     7    10    13   ar
     8    10     9   ar
     9    22    17    1
    10    13    11   ar
    11    17    18   ar
    12    15    11    1
    13    15    19   ar
    14    18    20    1
    15    18    19   ar
    16     5     4   ar
    17     5     1   ar
    18     9     4    1
    19     9    12   ar
    20    11    14   ar
    21     4     3   ar
    22    14    12   ar
    23     6     1    1
    24     3     8    1
