@<TRIPOS>MOLECULE
mol_data/opt/m06hf/geoms/mol2/128-54-.out
 32 35 0 0 0
SMALL
GASTEIGER

@<TRIPOS>ATOM
      1 C           0.3581    1.6929    0.3855 C.ar    1  LIG1        0.0927
      2 C           1.6785    1.7382    0.0674 C.ar    1  LIG1       -0.0232
      3 C           1.9859    3.1248   -0.1231 C.ar    1  LIG1       -0.0126
      4 C           0.8193    3.7897    0.0973 C.ar    1  LIG1        0.1751
      5 O          -0.1677    2.9289    0.4056 O.2     1  LIG1       -0.4597
      6 H          -0.3167    0.8874    0.6142 H       1  LIG1        0.1029
      7 H           2.3478    0.9005   -0.0220 H       1  LIG1        0.0649
      8 H           2.9269    3.5762   -0.3865 H       1  LIG1        0.0656
      9 C           0.5049    5.2165    0.0502 C.ar    1  LIG1        0.2381
     10 N          -0.7443    5.6154    0.2874 N.ar    1  LIG1       -0.1220
     11 C           0.0178    7.7174   -0.0518 C.ar    1  LIG1        0.2099
     12 N           1.5187    6.0442   -0.2352 N.ar    1  LIG1       -0.1220
     13 N          -0.9881    6.8890    0.2342 N.ar    1  LIG1       -0.1246
     14 N           1.2734    7.3109   -0.2869 N.ar    1  LIG1       -0.1246
     15 C          -0.2655    9.1499   -0.1164 C.ar    1  LIG1        0.0604
     16 C           0.6234   10.1491   -0.3988 C.ar    1  LIG1       -0.0432
     17 C           0.0058   11.4329   -0.3894 C.ar    1  LIG1       -0.0462
     18 C          -1.3321   11.3735   -0.1010 C.ar    1  LIG1        0.0200
     19 S          -1.8537    9.7526    0.1759 S.2     1  LIG1       -0.0850
     20 H           1.6643    9.9588   -0.6132 H       1  LIG1        0.0630
     21 H           0.5179   12.3558   -0.6182 H       1  LIG1        0.0629
     22 C          -3.5890   12.3826   -0.5002 C.ar    1  LIG1       -0.0535
     23 C          -4.4716   13.4539   -0.4125 C.ar    1  LIG1       -0.0612
     24 C          -2.2861   12.5028   -0.0086 C.ar    1  LIG1       -0.0113
     25 C          -4.0595   14.6546    0.1598 C.ar    1  LIG1       -0.0617
     26 H          -5.4771   13.3528   -0.7986 H       1  LIG1        0.0618
     27 C          -1.8796   13.7074    0.5730 C.ar    1  LIG1       -0.0535
     28 C          -2.7619   14.7793    0.6506 C.ar    1  LIG1       -0.0612
     29 H          -0.8805   13.7893    0.9810 H       1  LIG1        0.0624
     30 H          -4.7470   15.4875    0.2260 H       1  LIG1        0.0618
     31 H          -3.9021   11.4572   -0.9680 H       1  LIG1        0.0624
     32 H          -2.4402   15.7075    1.1044 H       1  LIG1        0.0618
@<TRIPOS>BOND
     1    31    22    1
     2    26    23    1
     3    21    17    1
     4    20    16    1
     5    22    23   ar
     6    22    24   ar
     7    23    25   ar
     8    16    17   ar
     9    16    15   ar
    10    17    18   ar
    11     8     3    1
    12    14    12   ar
    13    14    11   ar
    14    12     9   ar
    15     3     2   ar
    16     3     4   ar
    17    15    11    1
    18    15    19   ar
    19    18    24    1
    20    18    19   ar
    21    11    13   ar
    22     7     2    1
    23    24    27   ar
    24     9     4    1
    25     9    10   ar
    26     2     1   ar
    27     4     5   ar
    28    25    30    1
    29    25    28   ar
    30    13    10   ar
    31     1     5   ar
    32     1     6    1
    33    27    28   ar
    34    27    29    1
    35    28    32    1
