@<TRIPOS>MOLECULE
mol_data/opt/m06hf/geoms/mol2/128-84-.out
 31 34 0 0 0
SMALL
GASTEIGER

@<TRIPOS>ATOM
      1 C           0.3003    1.7169   -0.0003 C.ar    1  LIG1        0.0927
      2 C           1.6582    1.7933    0.0009 C.ar    1  LIG1       -0.0232
      3 C           1.9689    3.1904    0.0004 C.ar    1  LIG1       -0.0126
      4 C           0.7668    3.8302    0.0001 C.ar    1  LIG1        0.1751
      5 O          -0.2449    2.9430   -0.0003 O.2     1  LIG1       -0.4597
      6 H          -0.3883    0.8904   -0.0006 H       1  LIG1        0.1029
      7 H           2.3475    0.9674    0.0015 H       1  LIG1        0.0649
      8 H           2.9350    3.6660    0.0007 H       1  LIG1        0.0656
      9 C           0.4430    5.2530   -0.0000 C.ar    1  LIG1        0.2381
     10 N          -0.8375    5.6294   -0.0003 N.ar    1  LIG1       -0.1219
     11 C          -0.0565    7.7415   -0.0003 C.ar    1  LIG1        0.2435
     12 N           1.4793    6.1007    0.0001 N.ar    1  LIG1       -0.1219
     13 N          -1.0889    6.9033   -0.0005 N.ar    1  LIG1       -0.1217
     14 N           1.2242    7.3685    0.0000 N.ar    1  LIG1       -0.1217
     15 C          -0.3501    9.2054   -0.0005 C.ar    1  LIG1        0.2435
     16 N           0.6840   10.0433   -0.0006 N.ar    1  LIG1       -0.1218
     17 C          -0.8503   11.7070   -0.0009 C.ar    1  LIG1        0.2034
     18 N          -1.6272    9.5811   -0.0006 N.ar    1  LIG1       -0.1218
     19 N           0.4277   11.3136   -0.0007 N.ar    1  LIG1       -0.1251
     20 N          -1.8789   10.8521   -0.0008 N.ar    1  LIG1       -0.1251
     21 C          -2.4661   13.6010   -0.0012 C.ar    1  LIG1       -0.0509
     22 C          -2.7331   14.9652   -0.0015 C.ar    1  LIG1       -0.0611
     23 C          -1.1410   13.1606   -0.0011 C.ar    1  LIG1        0.0226
     24 C          -1.6843   15.8828   -0.0015 C.ar    1  LIG1       -0.0617
     25 H          -3.7580   15.3108   -0.0016 H       1  LIG1        0.0618
     26 C          -0.0867   14.0761   -0.0012 C.ar    1  LIG1       -0.0509
     27 C          -0.3637   15.4382   -0.0014 C.ar    1  LIG1       -0.0611
     28 H           0.9322   13.7138   -0.0011 H       1  LIG1        0.0625
     29 H          -1.8963   16.9442   -0.0017 H       1  LIG1        0.0618
     30 H          -3.2680   12.8755   -0.0012 H       1  LIG1        0.0625
     31 H           0.4499   16.1508   -0.0015 H       1  LIG1        0.0618
@<TRIPOS>BOND
     1    29    24    1
     2    25    22    1
     3    24    22   ar
     4    24    27   ar
     5    31    27    1
     6    22    21   ar
     7    27    26   ar
     8    21    30    1
     9    21    23   ar
    10    26    23   ar
    11    26    28    1
    12    23    17    1
    13    17    20   ar
    14    17    19   ar
    15    20    18   ar
    16    19    16   ar
    17     6     1    1
    18    18    15   ar
    19    16    15   ar
    20    15    11    1
    21    13    10   ar
    22    13    11   ar
    23     5     1   ar
    24     5     4   ar
    25    10     9   ar
    26     1     2   ar
    27    11    14   ar
    28     9     4    1
    29     9    12   ar
    30    14    12   ar
    31     4     3   ar
    32     3     8    1
    33     3     2   ar
    34     2     7    1
