@<TRIPOS>MOLECULE
mol_data/opt/m06hf/geoms/mol2/128-12-8-.out
 28 31 0 0 0
SMALL
GASTEIGER

@<TRIPOS>ATOM
      1 C           0.1031    1.7034   -0.0000 C.ar    1  LIG1        0.0927
      2 C           1.4624    1.6944   -0.0001 C.ar    1  LIG1       -0.0232
      3 C           1.8612    3.0698    0.0001 C.ar    1  LIG1       -0.0126
      4 C           0.7024    3.7845   -0.0000 C.ar    1  LIG1        0.1751
      5 O          -0.3636    2.9627   -0.0000 O.2     1  LIG1       -0.4597
      6 H          -0.6367    0.9224   -0.0000 H       1  LIG1        0.1029
      7 H           2.0991    0.8271   -0.0002 H       1  LIG1        0.0649
      8 H           2.8554    3.4819    0.0001 H       1  LIG1        0.0656
      9 C           0.4678    5.2260   -0.0000 C.ar    1  LIG1        0.2381
     10 N          -0.7904    5.6782   -0.0001 N.ar    1  LIG1       -0.1219
     11 C           0.1192    7.7425   -0.0000 C.ar    1  LIG1        0.2381
     12 N           1.5508    6.0097    0.0000 N.ar    1  LIG1       -0.1219
     13 N          -0.9632    6.9623   -0.0001 N.ar    1  LIG1       -0.1219
     14 N           1.3765    7.2934    0.0000 N.ar    1  LIG1       -0.1219
     15 C          -0.1240    9.1864   -0.0001 C.ar    1  LIG1        0.1761
     16 C          -1.2958    9.8856   -0.0001 C.ar    1  LIG1       -0.0119
     17 C          -0.9192   11.2613   -0.0001 C.ar    1  LIG1       -0.0119
     18 C           0.4449   11.2668   -0.0001 C.ar    1  LIG1        0.1761
     19 O           0.9310   10.0155   -0.0000 O.2     1  LIG1       -0.4483
     20 H          -2.2836    9.4586   -0.0001 H       1  LIG1        0.0657
     21 H          -1.5518   12.1321   -0.0001 H       1  LIG1        0.0657
     22 C           1.3878   12.3868   -0.0001 C.ar    1  LIG1        0.2381
     23 N           0.8451   13.6085   -0.0001 N.ar    1  LIG1       -0.1226
     24 C           2.9595   14.3732   -0.0001 C.ar    1  LIG1        0.1605
     25 N           2.6965   12.1353   -0.0000 N.ar    1  LIG1       -0.1226
     26 N           1.6504   14.6246   -0.0001 N.ar    1  LIG1       -0.1338
     27 N           3.5003   13.1593   -0.0000 N.ar    1  LIG1       -0.1338
     28 H           3.6285   15.2202   -0.0001 H       1  LIG1        0.1085
@<TRIPOS>BOND
     1     7     2    1
     2    21    17    1
     3    20    16    1
     4     2     1   ar
     5     2     3   ar
     6    17    16   ar
     7    17    18   ar
     8    26    23   ar
     9    26    24   ar
    10    16    15   ar
    11    23    22   ar
    12    10    13   ar
    13    10     9   ar
    14    13    11   ar
    15    28    24    1
    16    24    27   ar
    17    18    22    1
    18    18    19   ar
    19    15    11    1
    20    15    19   ar
    21    22    25   ar
    22     5     4   ar
    23     5     1   ar
    24     9     4    1
    25     9    12   ar
    26     6     1    1
    27    27    25   ar
    28    11    14   ar
    29     4     3   ar
    30    14    12   ar
    31     3     8    1
