@<TRIPOS>MOLECULE
mol_data/opt/m06hf/geoms/mol2/128-4-4.out
 35 38 0 0 0
SMALL
GASTEIGER

@<TRIPOS>ATOM
      1 C           0.3473    1.6482   -0.1991 C.ar    1  LIG1        0.0927
      2 C           1.6726    1.7206    0.0919 C.ar    1  LIG1       -0.0232
      3 C           1.9675    3.1169    0.2207 C.ar    1  LIG1       -0.0126
      4 C           0.7898    3.7600   -0.0065 C.ar    1  LIG1        0.1751
      5 O          -0.1930    2.8766   -0.2606 O.2     1  LIG1       -0.4597
      6 H          -0.3212    0.8258   -0.3823 H       1  LIG1        0.1029
      7 H           2.3518    0.8935    0.2015 H       1  LIG1        0.0649
      8 H           2.9083    3.5879    0.4473 H       1  LIG1        0.0656
      9 C           0.4654    5.1859   -0.0138 C.ar    1  LIG1        0.2381
     10 N          -0.7790    5.5721   -0.2962 N.ar    1  LIG1       -0.1220
     11 C          -0.0347    7.6931   -0.0127 C.ar    1  LIG1        0.2034
     12 N           1.4670    6.0261    0.2692 N.ar    1  LIG1       -0.1220
     13 N          -1.0273    6.8460   -0.2931 N.ar    1  LIG1       -0.1251
     14 N           1.2122    7.2930    0.2681 N.ar    1  LIG1       -0.1251
     15 C          -1.5984    9.6051   -0.3464 C.ar    1  LIG1       -0.0504
     16 C          -1.8624   10.9682   -0.3463 C.ar    1  LIG1       -0.0534
     17 C          -0.3230    9.1473   -0.0112 C.ar    1  LIG1        0.0227
     18 C          -0.8661   11.8899   -0.0075 C.ar    1  LIG1       -0.0178
     19 H          -2.8427   11.3251   -0.6346 H       1  LIG1        0.0624
     20 C           0.6817   10.0560    0.3255 C.ar    1  LIG1       -0.0504
     21 C           0.4064   11.4168    0.3293 C.ar    1  LIG1       -0.0534
     22 H           1.6635    9.6878    0.5903 H       1  LIG1        0.0625
     23 H          -2.3657    8.8907   -0.6124 H       1  LIG1        0.0625
     24 H           1.1768   12.1196    0.6193 H       1  LIG1        0.0624
     25 C          -0.2265   14.2615   -0.5201 C.ar    1  LIG1       -0.0540
     26 C          -0.4957   15.6263   -0.5146 C.ar    1  LIG1       -0.0612
     27 C          -1.1558   13.3536   -0.0044 C.ar    1  LIG1       -0.0179
     28 C          -1.6985   16.0997    0.0035 C.ar    1  LIG1       -0.0617
     29 H           0.2298   16.3179   -0.9229 H       1  LIG1        0.0618
     30 C          -2.3601   13.8367    0.5151 C.ar    1  LIG1       -0.0540
     31 C          -2.6302   15.2014    0.5175 C.ar    1  LIG1       -0.0612
     32 H          -3.0740   13.1420    0.9403 H       1  LIG1        0.0624
     33 H          -1.9083   17.1613    0.0066 H       1  LIG1        0.0618
     34 H           0.6976   13.8929   -0.9482 H       1  LIG1        0.0624
     35 H          -3.5638   15.5627    0.9287 H       1  LIG1        0.0618
@<TRIPOS>BOND
     1    34    25    1
     2    29    26    1
     3    19    16    1
     4    23    15    1
     5    25    26   ar
     6    25    27   ar
     7    26    28   ar
     8     6     1    1
     9    15    16   ar
    10    15    17   ar
    11    16    18   ar
    12    10    13   ar
    13    10     9   ar
    14    13    11   ar
    15     5     1   ar
    16     5     4   ar
    17     1     2   ar
    18     9     4    1
    19     9    12   ar
    20    11    17    1
    21    11    14   ar
    22    17    20   ar
    23    18    27    1
    24    18    21   ar
    25     4     3   ar
    26    27    30   ar
    27    28    33    1
    28    28    31   ar
    29     2     7    1
    30     2     3   ar
    31     3     8    1
    32    14    12   ar
    33    20    21   ar
    34    20    22    1
    35    21    24    1
    36    30    31   ar
    37    30    32    1
    38    31    35    1
