@<TRIPOS>MOLECULE
mol_data/opt/m06hf/geoms/mol2/128-5-.out
 22 24 0 0 0
SMALL
GASTEIGER

@<TRIPOS>ATOM
      1 C           0.2858    1.7423   -0.0003 C.ar    1  LIG1        0.0927
      2 C           1.6426    1.8179   -0.0002 C.ar    1  LIG1       -0.0232
      3 C           1.9547    3.2162   -0.0002 C.ar    1  LIG1       -0.0126
      4 C           0.7543    3.8567   -0.0000 C.ar    1  LIG1        0.1751
      5 O          -0.2583    2.9705   -0.0001 O.2     1  LIG1       -0.4597
      6 H          -0.4038    0.9168   -0.0003 H       1  LIG1        0.1029
      7 H           2.3311    0.9910   -0.0002 H       1  LIG1        0.0649
      8 H           2.9207    3.6914   -0.0002 H       1  LIG1        0.0656
      9 C           0.4301    5.2822    0.0001 C.ar    1  LIG1        0.2381
     10 N          -0.8508    5.6592    0.0002 N.ar    1  LIG1       -0.1220
     11 C          -0.0743    7.7807    0.0003 C.ar    1  LIG1        0.2099
     12 N           1.4643    6.1294    0.0001 N.ar    1  LIG1       -0.1220
     13 N          -1.1052    6.9306    0.0003 N.ar    1  LIG1       -0.1246
     14 N           1.2068    7.3967    0.0002 N.ar    1  LIG1       -0.1246
     15 C          -0.3622    9.2153    0.0003 C.ar    1  LIG1        0.0598
     16 C          -1.5962    9.8003    0.0004 C.ar    1  LIG1       -0.0438
     17 C          -1.5129   11.2262    0.0003 C.ar    1  LIG1       -0.0540
     18 C          -0.2220   11.6662    0.0001 C.ar    1  LIG1       -0.0236
     19 S           0.9127   10.3767    0.0003 S.2     1  LIG1       -0.0934
     20 H           0.1266   12.6863   -0.0000 H       1  LIG1        0.0693
     21 H          -2.5109    9.2266    0.0004 H       1  LIG1        0.0630
     22 H          -2.3699   11.8823    0.0002 H       1  LIG1        0.0623
@<TRIPOS>BOND
     1     6     1    1
     2     1     2   ar
     3     1     5   ar
     4     7     2    1
     5     8     3    1
     6     2     3   ar
     7     3     4   ar
     8     5     4   ar
     9     4     9    1
    10    20    18    1
    11    12     9   ar
    12    12    14   ar
    13    18    17   ar
    14    18    19   ar
    15     9    10   ar
    16    14    11   ar
    17    10    13   ar
    18    22    17    1
    19    17    16   ar
    20    11    13   ar
    21    11    15    1
    22    15    19   ar
    23    15    16   ar
    24    16    21    1
