@<TRIPOS>MOLECULE
mol_data/opt/m06hf/geoms/mol2/128-4.out
 25 27 0 0 0
SMALL
GASTEIGER

@<TRIPOS>ATOM
      1 C           0.2980    1.7285   -0.0009 C.ar    1  LIG1        0.0927
      2 C           1.6549    1.8028   -0.0001 C.ar    1  LIG1       -0.0232
      3 C           1.9683    3.2009   -0.0003 C.ar    1  LIG1       -0.0126
      4 C           0.7685    3.8426   -0.0001 C.ar    1  LIG1        0.1751
      5 O          -0.2448    2.9572   -0.0005 O.2     1  LIG1       -0.4597
      6 H          -0.3924    0.9037   -0.0012 H       1  LIG1        0.1029
      7 H           2.3430    0.9758    0.0001 H       1  LIG1        0.0649
      8 H           2.9352    3.6746   -0.0001 H       1  LIG1        0.0656
      9 C           0.4450    5.2688    0.0002 C.ar    1  LIG1        0.2381
     10 N          -0.8330    5.6481    0.0001 N.ar    1  LIG1       -0.1220
     11 C          -0.0556    7.7764    0.0007 C.ar    1  LIG1        0.2034
     12 N           1.4798    6.1159    0.0005 N.ar    1  LIG1       -0.1220
     13 N          -1.0810    6.9219    0.0004 N.ar    1  LIG1       -0.1251
     14 N           1.2241    7.3830    0.0007 N.ar    1  LIG1       -0.1251
     15 C           0.7074   10.1482    0.0013 C.ar    1  LIG1       -0.0509
     16 C           0.4312   11.5108    0.0016 C.ar    1  LIG1       -0.0611
     17 C          -0.3459    9.2319    0.0010 C.ar    1  LIG1        0.0226
     18 C          -0.8887   11.9568    0.0015 C.ar    1  LIG1       -0.0617
     19 H           1.2456   12.2227    0.0018 H       1  LIG1        0.0618
     20 C          -1.6700    9.6743    0.0009 C.ar    1  LIG1       -0.0509
     21 C          -1.9369   11.0387    0.0011 C.ar    1  LIG1       -0.0611
     22 H          -2.4721    8.9488    0.0006 H       1  LIG1        0.0625
     23 H          -1.1004   13.0182    0.0017 H       1  LIG1        0.0618
     24 H           1.7262    9.7858    0.0014 H       1  LIG1        0.0625
     25 H          -2.9619   11.3841    0.0011 H       1  LIG1        0.0618
@<TRIPOS>BOND
     1     6     1    1
     2     1     5   ar
     3     1     2   ar
     4     5     4   ar
     5     3     4   ar
     6     3     2   ar
     7     3     8    1
     8     4     9    1
     9     2     7    1
    10    10     9   ar
    11    10    13   ar
    12     9    12   ar
    13    13    11   ar
    14    12    14   ar
    15    22    20    1
    16    11    14   ar
    17    11    17    1
    18    20    17   ar
    19    20    21   ar
    20    17    15   ar
    21    25    21    1
    22    21    18   ar
    23    15    24    1
    24    15    16   ar
    25    18    16   ar
    26    18    23    1
    27    16    19    1
