@<TRIPOS>MOLECULE
mol_data/opt/m06hf/geoms/mol2/128.out
 15 16 0 0 0
SMALL
GASTEIGER

@<TRIPOS>ATOM
      1 C           0.2300    1.7985   -0.0001 C.ar    1  LIG1        0.0927
      2 C           1.5887    1.8369    0.0001 C.ar    1  LIG1       -0.0232
      3 C           1.9384    3.2260   -0.0000 C.ar    1  LIG1       -0.0126
      4 C           0.7559    3.8987   -0.0000 C.ar    1  LIG1        0.1751
      5 O          -0.2803    3.0402   -0.0001 O.2     1  LIG1       -0.4597
      6 H          -0.4815    0.9917   -0.0001 H       1  LIG1        0.1029
      7 H           2.2545    0.9919    0.0001 H       1  LIG1        0.0649
      8 H           2.9173    3.6747   -0.0000 H       1  LIG1        0.0656
      9 C           0.4698    5.3331   -0.0000 C.ar    1  LIG1        0.2380
     10 N           1.5298    6.1492   -0.0001 N.ar    1  LIG1       -0.1226
     11 C           0.0386    7.8319   -0.0002 C.ar    1  LIG1        0.1605
     12 N          -0.8000    5.7407   -0.0001 N.ar    1  LIG1       -0.1226
     13 N           1.3079    7.4262   -0.0001 N.ar    1  LIG1       -0.1338
     14 N          -1.0163    7.0239   -0.0001 N.ar    1  LIG1       -0.1338
     15 H          -0.1457    8.8957   -0.0001 H       1  LIG1        0.1085
@<TRIPOS>BOND
     1    11    15    1
     2    11    13   ar
     3    11    14   ar
     4     6     1    1
     5    13    10   ar
     6    14    12   ar
     7     1     5   ar
     8     1     2   ar
     9     5     4   ar
    10    10     9   ar
    11    12     9   ar
    12     3     8    1
    13     3     4   ar
    14     3     2   ar
    15     4     9    1
    16     2     7    1
