@<TRIPOS>MOLECULE
mol_data/opt/m06hf/geoms/mol2/12813.out
 23 25 0 0 0
SMALL
GASTEIGER

@<TRIPOS>ATOM
      1 C           0.2494    1.7597   -0.0003 C.ar    1  LIG1        0.0927
      2 C           1.6070    1.8108   -0.0002 C.ar    1  LIG1       -0.0232
      3 C           1.9449    3.2037   -0.0000 C.ar    1  LIG1       -0.0126
      4 C           0.7565    3.8662   -0.0001 C.ar    1  LIG1        0.1751
      5 O          -0.2720    2.9983   -0.0002 O.2     1  LIG1       -0.4597
      6 H          -0.4559    0.9475   -0.0004 H       1  LIG1        0.1029
      7 H           2.2811    0.9725   -0.0002 H       1  LIG1        0.0649
      8 H           2.9201    3.6599    0.0001 H       1  LIG1        0.0656
      9 C           0.4547    5.2977    0.0000 C.ar    1  LIG1        0.2381
     10 N           1.5056    6.1305    0.0001 N.ar    1  LIG1       -0.1220
     11 C           0.0006    7.8079    0.0001 C.ar    1  LIG1        0.2194
     12 N          -0.8158    5.6958   -0.0000 N.ar    1  LIG1       -0.1220
     13 N           1.2799    7.4005    0.0002 N.ar    1  LIG1       -0.1236
     14 N          -1.0423    6.9747    0.0000 N.ar    1  LIG1       -0.1236
     15 C          -0.2783    9.2340    0.0002 C.ar    1  LIG1        0.0875
     16 C           0.5627   10.3292    0.0003 C.ar    1  LIG1       -0.0333
     17 C          -0.2645   11.4773    0.0002 C.ar    1  LIG1       -0.0437
     18 C          -1.5750   11.0384    0.0003 C.ar    1  LIG1        0.0023
     19 N          -1.5673    9.6834    0.0002 N.ar    1  LIG1       -0.3582
     20 H          -2.3649    9.0644    0.0002 H       1  LIG1        0.1654
     21 H          -2.4982   11.5914    0.0003 H       1  LIG1        0.0807
     22 H           1.6388   10.2845    0.0004 H       1  LIG1        0.0640
     23 H           0.0547   12.5051    0.0002 H       1  LIG1        0.0633
@<TRIPOS>BOND
     1     6     1    1
     2     1     5   ar
     3     1     2   ar
     4     5     4   ar
     5     7     2    1
     6     2     3   ar
     7     4     3   ar
     8     4     9    1
     9     3     8    1
    10    12     9   ar
    11    12    14   ar
    12     9    10   ar
    13    14    11   ar
    14    10    13   ar
    15    11    13   ar
    16    11    15    1
    17    23    17    1
    18    15    19   ar
    19    15    16   ar
    20    17    18   ar
    21    17    16   ar
    22    20    19    1
    23    19    18   ar
    24    18    21    1
    25    16    22    1
