@<TRIPOS>MOLECULE
mol_data/opt/m06hf/geoms/mol2/12813-.out
 23 25 0 0 0
SMALL
GASTEIGER

@<TRIPOS>ATOM
      1 C           0.2937    1.7533    0.0002 C.ar    1  LIG1        0.0927
      2 C           1.6501    1.8296    0.0001 C.ar    1  LIG1       -0.0232
      3 C           1.9616    3.2286   -0.0000 C.ar    1  LIG1       -0.0126
      4 C           0.7613    3.8688   -0.0000 C.ar    1  LIG1        0.1751
      5 O          -0.2504    2.9817    0.0001 O.2     1  LIG1       -0.4597
      6 H          -0.3957    0.9276    0.0003 H       1  LIG1        0.1029
      7 H           2.3392    1.0034    0.0001 H       1  LIG1        0.0649
      8 H           2.9279    3.7035   -0.0001 H       1  LIG1        0.0656
      9 C           0.4339    5.2948   -0.0001 C.ar    1  LIG1        0.2381
     10 N           1.4635    6.1450   -0.0002 N.ar    1  LIG1       -0.1220
     11 C          -0.0838    7.7925   -0.0003 C.ar    1  LIG1        0.2194
     12 N          -0.8496    5.6688   -0.0002 N.ar    1  LIG1       -0.1220
     13 N           1.1995    7.4118   -0.0003 N.ar    1  LIG1       -0.1236
     14 N          -1.1131    6.9363   -0.0002 N.ar    1  LIG1       -0.1236
     15 C          -0.3577    9.2198   -0.0004 C.ar    1  LIG1        0.0875
     16 C          -1.5468    9.9215   -0.0004 C.ar    1  LIG1       -0.0333
     17 C          -1.2083   11.2957   -0.0006 C.ar    1  LIG1       -0.0437
     18 C           0.1713   11.3781   -0.0005 C.ar    1  LIG1        0.0023
     19 N           0.6703   10.1182   -0.0004 N.ar    1  LIG1       -0.3582
     20 H           1.6414    9.8421   -0.0004 H       1  LIG1        0.1654
     21 H           0.8212   12.2360   -0.0006 H       1  LIG1        0.0807
     22 H          -2.5280    9.4772   -0.0004 H       1  LIG1        0.0640
     23 H          -1.8881   12.1300   -0.0007 H       1  LIG1        0.0633
@<TRIPOS>BOND
     1    23    17    1
     2    17    18   ar
     3    17    16   ar
     4    21    18    1
     5    18    19   ar
     6    19    15   ar
     7    19    20    1
     8    15    16   ar
     9    15    11    1
    10    16    22    1
    11    11    13   ar
    12    11    14   ar
    13    13    10   ar
    14    14    12   ar
    15    10     9   ar
    16    12     9   ar
    17     9     4    1
    18     8     3    1
    19     4     3   ar
    20     4     5   ar
    21     3     2   ar
    22     2     7    1
    23     2     1   ar
    24     5     1   ar
    25     1     6    1
