@<TRIPOS>MOLECULE
mol_data/opt/m06hf/geoms/mol2/12812-12-.out
 29 32 0 0 0
SMALL
GASTEIGER

@<TRIPOS>ATOM
      1 C           0.1125    1.6981   -0.0001 C.ar    1  LIG1        0.0927
      2 C           1.4714    1.6971    0.0000 C.ar    1  LIG1       -0.0232
      3 C           1.8622    3.0754   -0.0001 C.ar    1  LIG1       -0.0126
      4 C           0.6997    3.7835   -0.0000 C.ar    1  LIG1        0.1751
      5 O          -0.3613    2.9553   -0.0001 O.2     1  LIG1       -0.4597
      6 H          -0.6229    0.9131   -0.0001 H       1  LIG1        0.1029
      7 H           2.1132    0.8336    0.0000 H       1  LIG1        0.0649
      8 H           2.8538    3.4937   -0.0000 H       1  LIG1        0.0656
      9 C           0.4570    5.2249   -0.0000 C.ar    1  LIG1        0.2381
     10 N           1.5352    6.0137   -0.0000 N.ar    1  LIG1       -0.1219
     11 C           0.0954    7.7428   -0.0001 C.ar    1  LIG1        0.2381
     12 N          -0.8030    5.6713   -0.0001 N.ar    1  LIG1       -0.1219
     13 N           1.3555    7.2967   -0.0001 N.ar    1  LIG1       -0.1219
     14 N          -0.9833    6.9540   -0.0001 N.ar    1  LIG1       -0.1219
     15 C          -0.1509    9.1817   -0.0001 C.ar    1  LIG1        0.1761
     16 C          -1.3184    9.8845   -0.0001 C.ar    1  LIG1       -0.0119
     17 C          -0.9406   11.2607   -0.0001 C.ar    1  LIG1       -0.0121
     18 C           0.4258   11.2715   -0.0001 C.ar    1  LIG1        0.1707
     19 O           0.9057   10.0169   -0.0001 O.2     1  LIG1       -0.4485
     20 H          -2.3076    9.4604   -0.0001 H       1  LIG1        0.0657
     21 H          -1.5877   12.1205   -0.0001 H       1  LIG1        0.0657
     22 C           1.3901   12.3623   -0.0001 C.ar    1  LIG1        0.1697
     23 C           1.2359   13.7146   -0.0001 C.ar    1  LIG1       -0.0128
     24 C           2.5647   14.2565   -0.0000 C.ar    1  LIG1       -0.0232
     25 C           3.4008   13.1880   -0.0000 C.ar    1  LIG1        0.0927
     26 O           2.6976   12.0397   -0.0000 O.2     1  LIG1       -0.4598
     27 H           4.4716   13.0899    0.0000 H       1  LIG1        0.1029
     28 H           0.3048   14.2543   -0.0001 H       1  LIG1        0.0656
     29 H           2.8487   15.2943   -0.0000 H       1  LIG1        0.0649
@<TRIPOS>BOND
     1    21    17    1
     2    20    16    1
     3    17    16   ar
     4    17    18   ar
     5    16    15   ar
     6    14    11   ar
     7    14    12   ar
     8    28    23    1
     9    15    11    1
    10    15    19   ar
    11     5     1   ar
    12     5     4   ar
    13    11    13   ar
    14    12     9   ar
    15    18    19   ar
    16    18    22    1
    17    23    22   ar
    18    23    24   ar
    19     6     1    1
    20    22    26   ar
    21     1     2   ar
    22    13    10   ar
    23     3     4   ar
    24     3     8    1
    25     3     2   ar
    26    29    24    1
    27     4     9    1
    28     9    10   ar
    29    24    25   ar
    30    26    25   ar
    31    25    27    1
    32     2     7    1
