@<TRIPOS>MOLECULE
mol_data/opt/m06hf/geoms/mol2/12813-4.out
 33 36 0 0 0
SMALL
GASTEIGER

@<TRIPOS>ATOM
      1 C           0.3307    1.7199    0.1018 C.ar    1  LIG1        0.0927
      2 C           1.6763    1.8188    0.2597 C.ar    1  LIG1       -0.0232
      3 C           1.9675    3.2220    0.2545 C.ar    1  LIG1       -0.0126
      4 C           0.7674    3.8424    0.0935 C.ar    1  LIG1        0.1751
      5 O          -0.2257    2.9389    0.0016 O.2     1  LIG1       -0.4597
      6 H          -0.3432    0.8834    0.0450 H       1  LIG1        0.1029
      7 H           2.3723    1.0048    0.3651 H       1  LIG1        0.0649
      8 H           2.9213    3.7103    0.3544 H       1  LIG1        0.0656
      9 C           0.4226    5.2618    0.0116 C.ar    1  LIG1        0.2381
     10 N           1.4271    6.1325    0.1347 N.ar    1  LIG1       -0.1220
     11 C          -0.1339    7.7470   -0.1242 C.ar    1  LIG1        0.2194
     12 N          -0.8549    5.6086   -0.1798 N.ar    1  LIG1       -0.1220
     13 N           1.1434    7.3938    0.0652 N.ar    1  LIG1       -0.1236
     14 N          -1.1384    6.8698   -0.2475 N.ar    1  LIG1       -0.1236
     15 C          -0.4312    9.1666   -0.1967 C.ar    1  LIG1        0.0879
     16 C          -1.6237    9.8397   -0.3818 C.ar    1  LIG1       -0.0326
     17 C          -1.3203   11.2187   -0.3503 C.ar    1  LIG1       -0.0357
     18 C           0.0472   11.3431   -0.1478 C.ar    1  LIG1        0.0470
     19 N           0.5646   10.0901   -0.0618 N.ar    1  LIG1       -0.3516
     20 H           1.5227    9.8468    0.1482 H       1  LIG1        0.1660
     21 H          -2.5820    9.3720   -0.5302 H       1  LIG1        0.0640
     22 H          -2.0043   12.0384   -0.4938 H       1  LIG1        0.0639
     23 C           2.1989   12.5518   -0.5441 C.ar    1  LIG1       -0.0526
     24 C           2.9892   13.6909   -0.4305 C.ar    1  LIG1       -0.0611
     25 C           0.8942   12.5473   -0.0419 C.ar    1  LIG1       -0.0017
     26 C           2.4799   14.8388    0.1710 C.ar    1  LIG1       -0.0617
     27 H           3.9973   13.6860   -0.8238 H       1  LIG1        0.0618
     28 C           0.3889   13.7008    0.5637 C.ar    1  LIG1       -0.0526
     29 C           1.1762   14.8423    0.6627 C.ar    1  LIG1       -0.0611
     30 H          -0.6137   13.6880    0.9717 H       1  LIG1        0.0624
     31 H           3.0933   15.7262    0.2539 H       1  LIG1        0.0618
     32 H           2.5849   11.6745   -1.0490 H       1  LIG1        0.0624
     33 H           0.7770   15.7308    1.1335 H       1  LIG1        0.0618
@<TRIPOS>BOND
     1    32    23    1
     2    27    24    1
     3    23    24   ar
     4    23    25   ar
     5    21    16    1
     6    22    17    1
     7    24    26   ar
     8    16    17   ar
     9    16    15   ar
    10    17    18   ar
    11    14    12   ar
    12    14    11   ar
    13    15    11    1
    14    15    19   ar
    15    12     9   ar
    16    18    19   ar
    17    18    25    1
    18    11    13   ar
    19    19    20    1
    20    25    28   ar
    21     5     4   ar
    22     5     1   ar
    23     9     4    1
    24     9    10   ar
    25     6     1    1
    26    13    10   ar
    27     4     3   ar
    28     1     2   ar
    29    26    31    1
    30    26    29   ar
    31     3     2   ar
    32     3     8    1
    33     2     7    1
    34    28    29   ar
    35    28    30    1
    36    29    33    1
