@<TRIPOS>MOLECULE
mol_data/opt/m06hf/geoms/mol2/1284-13.out
 33 36 0 0 0
SMALL
GASTEIGER

@<TRIPOS>ATOM
      1 C           0.3309    1.6646   -0.1513 C.ar    1  LIG1        0.0927
      2 C           1.6713    1.7404    0.0573 C.ar    1  LIG1       -0.0232
      3 C           1.9719    3.1379    0.1564 C.ar    1  LIG1       -0.0126
      4 C           0.7816    3.7781   -0.0024 C.ar    1  LIG1        0.1751
      5 O          -0.2139    2.8921   -0.1888 O.2     1  LIG1       -0.4597
      6 H          -0.3464    0.8400   -0.2866 H       1  LIG1        0.1029
      7 H           2.3572    0.9148    0.1315 H       1  LIG1        0.0649
      8 H           2.9240    3.6116    0.3215 H       1  LIG1        0.0656
      9 C           0.4558    5.2036   -0.0015 C.ar    1  LIG1        0.2381
     10 N           1.4792    6.0485    0.1693 N.ar    1  LIG1       -0.1220
     11 C          -0.0443    7.7115    0.0024 C.ar    1  LIG1        0.2034
     12 N          -0.8107    5.5857   -0.1656 N.ar    1  LIG1       -0.1220
     13 N           1.2244    7.3150    0.1706 N.ar    1  LIG1       -0.1251
     14 N          -1.0588    6.8598   -0.1623 N.ar    1  LIG1       -0.1251
     15 C          -1.6364    9.6177   -0.1990 C.ar    1  LIG1       -0.0503
     16 C          -1.8989   10.9808   -0.2133 C.ar    1  LIG1       -0.0520
     17 C          -0.3310    9.1650   -0.0014 C.ar    1  LIG1        0.0227
     18 C          -0.8697   11.9084   -0.0141 C.ar    1  LIG1       -0.0017
     19 H          -2.9049   11.3265   -0.4156 H       1  LIG1        0.0624
     20 C           0.7061   10.0818    0.1877 C.ar    1  LIG1       -0.0503
     21 C           0.4339   11.4417    0.1895 C.ar    1  LIG1       -0.0520
     22 H           1.7128    9.7190    0.3441 H       1  LIG1        0.0625
     23 H          -2.4290    8.8986   -0.3554 H       1  LIG1        0.0625
     24 H           1.2280   12.1539    0.3688 H       1  LIG1        0.0624
     25 C          -1.1361   13.3570   -0.0266 C.ar    1  LIG1        0.0465
     26 C          -0.3550   14.4082   -0.4601 C.ar    1  LIG1       -0.0364
     27 C          -1.1003   15.6023   -0.2641 C.ar    1  LIG1       -0.0438
     28 C          -2.3069   15.2408    0.2861 C.ar    1  LIG1        0.0022
     29 N          -2.3198   13.8840    0.4160 N.ar    1  LIG1       -0.3607
     30 H          -3.0478   13.3496    0.8620 H       1  LIG1        0.1653
     31 H          -3.1462   15.8385    0.5969 H       1  LIG1        0.0807
     32 H           0.6222   14.3164   -0.9039 H       1  LIG1        0.0639
     33 H          -0.7928   16.6053   -0.5050 H       1  LIG1        0.0633
@<TRIPOS>BOND
     1    32    26    1
     2    33    27    1
     3    26    27   ar
     4    26    25   ar
     5    19    16    1
     6    23    15    1
     7     6     1    1
     8    27    28   ar
     9    16    15   ar
    10    16    18   ar
    11    15    17   ar
    12     5     1   ar
    13     5     4   ar
    14    12    14   ar
    15    12     9   ar
    16    14    11   ar
    17     1     2   ar
    18    25    18    1
    19    25    29   ar
    20    18    21   ar
    21     4     9    1
    22     4     3   ar
    23     9    10   ar
    24    17    11    1
    25    17    20   ar
    26    11    13   ar
    27     2     7    1
    28     2     3   ar
    29     3     8    1
    30    10    13   ar
    31    20    21   ar
    32    20    22    1
    33    21    24    1
    34    28    29   ar
    35    28    31    1
    36    29    30    1
