@<TRIPOS>MOLECULE
mol_data/opt/m06hf/geoms/mol2/12844-.out
 35 38 0 0 0
SMALL
GASTEIGER

@<TRIPOS>ATOM
      1 C           0.3711    1.6451   -0.2012 C.ar    1  LIG1        0.0927
      2 C           1.6953    1.7288    0.0914 C.ar    1  LIG1       -0.0232
      3 C           1.9780    3.1275    0.2214 C.ar    1  LIG1       -0.0126
      4 C           0.7948    3.7606   -0.0065 C.ar    1  LIG1        0.1751
      5 O          -0.1800    2.8688   -0.2621 O.2     1  LIG1       -0.4597
      6 H          -0.2901    0.8170   -0.3856 H       1  LIG1        0.1029
      7 H           2.3816    0.9076    0.2012 H       1  LIG1        0.0649
      8 H           2.9144    3.6066    0.4492 H       1  LIG1        0.0656
      9 C           0.4582    5.1835   -0.0130 C.ar    1  LIG1        0.2381
     10 N           1.4522    6.0322    0.2714 N.ar    1  LIG1       -0.1220
     11 C          -0.0636    7.6864   -0.0106 C.ar    1  LIG1        0.2034
     12 N          -0.7893    5.5591   -0.2962 N.ar    1  LIG1       -0.1220
     13 N           1.1864    7.2969    0.2711 N.ar    1  LIG1       -0.1251
     14 N          -1.0487    6.8309   -0.2924 N.ar    1  LIG1       -0.1251
     15 C           0.6321   10.0551    0.3295 C.ar    1  LIG1       -0.0504
     16 C           0.3449   11.4135    0.3340 C.ar    1  LIG1       -0.0534
     17 C          -0.3646    9.1380   -0.0083 C.ar    1  LIG1        0.0227
     18 C          -0.9315   11.8756   -0.0030 C.ar    1  LIG1       -0.0178
     19 H           1.1090   12.1228    0.6247 H       1  LIG1        0.0624
     20 C          -1.6438    9.5849   -0.3437 C.ar    1  LIG1       -0.0504
     21 C          -1.9197   10.9456   -0.3428 C.ar    1  LIG1       -0.0534
     22 H          -2.4047    8.8640   -0.6105 H       1  LIG1        0.0625
     23 H           1.6169    9.6952    0.5945 H       1  LIG1        0.0625
     24 H          -2.9029   11.2943   -0.6313 H       1  LIG1        0.0624
     25 C          -2.4424   13.8091    0.5208 C.ar    1  LIG1       -0.0540
     26 C          -2.7244   15.1714    0.5240 C.ar    1  LIG1       -0.0612
     27 C          -1.2339   13.3368    0.0010 C.ar    1  LIG1       -0.0179
     28 C          -1.8006   16.0781    0.0104 C.ar    1  LIG1       -0.0617
     29 H          -3.6611   15.5244    0.9354 H       1  LIG1        0.0618
     30 C          -0.3126   14.2531   -0.5142 C.ar    1  LIG1       -0.0540
     31 C          -0.5937   15.6155   -0.5079 C.ar    1  LIG1       -0.0612
     32 H           0.6147   13.8928   -0.9425 H       1  LIG1        0.0624
     33 H          -2.0196   17.1378    0.0142 H       1  LIG1        0.0618
     34 H          -3.1502   13.1079    0.9455 H       1  LIG1        0.0624
     35 H           0.1258   16.3137   -0.9157 H       1  LIG1        0.0618
@<TRIPOS>BOND
     1    32    30    1
     2    35    31    1
     3    24    21    1
     4    22    20    1
     5    30    31   ar
     6    30    27   ar
     7    31    28   ar
     8     6     1    1
     9    20    21   ar
    10    20    17   ar
    11    21    18   ar
    12    12    14   ar
    13    12     9   ar
    14    14    11   ar
    15     5     1   ar
    16     5     4   ar
    17     1     2   ar
    18     9     4    1
    19     9    10   ar
    20    11    17    1
    21    11    13   ar
    22    17    15   ar
    23     4     3   ar
    24    18    27    1
    25    18    16   ar
    26    27    25   ar
    27    28    33    1
    28    28    26   ar
    29     2     7    1
    30     2     3   ar
    31     3     8    1
    32    13    10   ar
    33    15    16   ar
    34    15    23    1
    35    16    19    1
    36    25    26   ar
    37    25    34    1
    38    26    29    1
