@<TRIPOS>MOLECULE
mol_data/opt/m06hf/geoms/mol2/1285.out
 22 24 0 0 0
SMALL
GASTEIGER

@<TRIPOS>ATOM
      1 C           0.2583    1.7584    0.0002 C.ar    1  LIG1        0.0927
      2 C           1.6162    1.8090    0.0002 C.ar    1  LIG1       -0.0232
      3 C           1.9543    3.2013   -0.0002 C.ar    1  LIG1       -0.0126
      4 C           0.7657    3.8643   -0.0001 C.ar    1  LIG1        0.1751
      5 O          -0.2626    2.9965    0.0002 O.2     1  LIG1       -0.4597
      6 H          -0.4476    0.9466    0.0004 H       1  LIG1        0.1029
      7 H           2.2902    0.9706    0.0004 H       1  LIG1        0.0649
      8 H           2.9298    3.6568   -0.0004 H       1  LIG1        0.0656
      9 C           0.4630    5.2948   -0.0002 C.ar    1  LIG1        0.2381
     10 N           1.5100    6.1297   -0.0005 N.ar    1  LIG1       -0.1220
     11 C          -0.0042    7.8011   -0.0005 C.ar    1  LIG1        0.2099
     12 N          -0.8104    5.6887   -0.0001 N.ar    1  LIG1       -0.1220
     13 N           1.2744    7.3997   -0.0006 N.ar    1  LIG1       -0.1246
     14 N          -1.0434    6.9655   -0.0003 N.ar    1  LIG1       -0.1246
     15 C          -0.2734    9.2393   -0.0005 C.ar    1  LIG1        0.0598
     16 C           0.6517   10.2440   -0.0007 C.ar    1  LIG1       -0.0438
     17 C           0.0402   11.5347   -0.0006 C.ar    1  LIG1       -0.0540
     18 C          -1.3217   11.4580   -0.0003 C.ar    1  LIG1       -0.0236
     19 S          -1.8903    9.8378   -0.0004 S.2     1  LIG1       -0.0934
     20 H          -2.0269   12.2734   -0.0002 H       1  LIG1        0.0693
     21 H           1.7148   10.0550   -0.0008 H       1  LIG1        0.0630
     22 H           0.5885   12.4642   -0.0006 H       1  LIG1        0.0623
@<TRIPOS>BOND
     1    21    16    1
     2    16    17   ar
     3    16    15   ar
     4    22    17    1
     5    17    18   ar
     6    13    10   ar
     7    13    11   ar
     8    15    11    1
     9    15    19   ar
    10    10     9   ar
    11    11    14   ar
    12    19    18   ar
    13     8     3    1
    14    18    20    1
    15    14    12   ar
    16     9    12   ar
    17     9     4    1
    18     3     4   ar
    19     3     2   ar
    20     4     5   ar
    21     5     1   ar
    22     1     2   ar
    23     1     6    1
    24     2     7    1
