@<TRIPOS>MOLECULE
mol_data/opt/m06hf/geoms/mol2/12858-.out
 28 31 0 0 0
SMALL
GASTEIGER

@<TRIPOS>ATOM
      1 C           0.3047    1.7158    0.0006 C.ar    1  LIG1        0.0927
      2 C           1.6621    1.7824   -0.0004 C.ar    1  LIG1       -0.0232
      3 C           1.9837    3.1786    0.0002 C.ar    1  LIG1       -0.0126
      4 C           0.7867    3.8270   -0.0000 C.ar    1  LIG1        0.1751
      5 O          -0.2309    2.9471    0.0003 O.2     1  LIG1       -0.4597
      6 H          -0.3915    0.8960    0.0009 H       1  LIG1        0.1029
      7 H           2.3473    0.9529   -0.0009 H       1  LIG1        0.0649
      8 H           2.9529    3.6471    0.0000 H       1  LIG1        0.0656
      9 C           0.4721    5.2532   -0.0002 C.ar    1  LIG1        0.2381
     10 N           1.5142    6.0955   -0.0003 N.ar    1  LIG1       -0.1220
     11 C          -0.0102    7.7545   -0.0004 C.ar    1  LIG1        0.2099
     12 N          -0.8050    5.6391   -0.0002 N.ar    1  LIG1       -0.1220
     13 N           1.2707    7.3638   -0.0004 N.ar    1  LIG1       -0.1246
     14 N          -1.0447    6.9141   -0.0002 N.ar    1  LIG1       -0.1246
     15 C          -0.2905    9.1930   -0.0005 C.ar    1  LIG1        0.0605
     16 C           0.6367   10.2010   -0.0006 C.ar    1  LIG1       -0.0431
     17 C           0.0206   11.4824   -0.0005 C.ar    1  LIG1       -0.0431
     18 C          -1.3450   11.3897   -0.0003 C.ar    1  LIG1        0.0605
     19 S          -1.9123    9.7654   -0.0005 S.2     1  LIG1       -0.0818
     20 H           1.7003   10.0182   -0.0007 H       1  LIG1        0.0630
     21 H           0.5414   12.4281   -0.0005 H       1  LIG1        0.0630
     22 C          -2.2887   12.5114    0.0000 C.ar    1  LIG1        0.2099
     23 N          -3.5933   12.2297    0.0001 N.ar    1  LIG1       -0.1253
     24 C          -3.9250   14.4525    0.0002 C.ar    1  LIG1        0.1605
     25 N          -1.7863   13.7500    0.0000 N.ar    1  LIG1       -0.1253
     26 N          -4.4305   13.2226    0.0002 N.ar    1  LIG1       -0.1339
     27 N          -2.6244   14.7405    0.0002 N.ar    1  LIG1       -0.1339
     28 H          -4.6197   15.2786    0.0006 H       1  LIG1        0.1085
@<TRIPOS>BOND
     1     7     2    1
     2    20    16    1
     3    16    17   ar
     4    16    15   ar
     5    17    21    1
     6    17    18   ar
     7    19    15   ar
     8    19    18   ar
     9    15    11    1
    10    13    11   ar
    11    13    10   ar
    12     2     3   ar
    13     2     1   ar
    14    11    14   ar
    15    10     9   ar
    16    18    22    1
    17    14    12   ar
    18     9    12   ar
    19     9     4    1
    20     4     3   ar
    21     4     5   ar
    22    22    25   ar
    23    22    23   ar
    24    25    27   ar
    25     8     3    1
    26    23    26   ar
    27    24    27   ar
    28    24    26   ar
    29    24    28    1
    30     5     1   ar
    31     1     6    1
