@<TRIPOS>MOLECULE
mol_data/opt/m06hf/geoms/mol2/1288-.out
 21 23 0 0 0
SMALL
GASTEIGER

@<TRIPOS>ATOM
      1 C           0.2676    1.7652    0.0000 C.ar    1  LIG1        0.0927
      2 C           1.6263    1.8299   -0.0002 C.ar    1  LIG1       -0.0232
      3 C           1.9490    3.2240    0.0001 C.ar    1  LIG1       -0.0126
      4 C           0.7524    3.8743   -0.0000 C.ar    1  LIG1        0.1751
      5 O          -0.2669    2.9956   -0.0001 O.2     1  LIG1       -0.4597
      6 H          -0.4279    0.9445    0.0000 H       1  LIG1        0.1029
      7 H           2.3084    0.9980   -0.0004 H       1  LIG1        0.0649
      8 H           2.9192    3.6914    0.0002 H       1  LIG1        0.0656
      9 C           0.4404    5.2991   -0.0000 C.ar    1  LIG1        0.2381
     10 N           1.4840    6.1383    0.0001 N.ar    1  LIG1       -0.1219
     11 C          -0.0382    7.7905   -0.0001 C.ar    1  LIG1        0.2435
     12 N          -0.8373    5.6860   -0.0001 N.ar    1  LIG1       -0.1219
     13 N           1.2391    7.4081    0.0001 N.ar    1  LIG1       -0.1217
     14 N          -1.0776    6.9619   -0.0001 N.ar    1  LIG1       -0.1217
     15 C          -0.3206    9.2587   -0.0000 C.ar    1  LIG1        0.2434
     16 N          -1.5962    9.6390   -0.0001 N.ar    1  LIG1       -0.1224
     17 C          -0.7966   11.7420   -0.0002 C.ar    1  LIG1        0.1605
     18 N           0.7236   10.0839   -0.0001 N.ar    1  LIG1       -0.1224
     19 N          -1.8396   10.9159   -0.0001 N.ar    1  LIG1       -0.1338
     20 N           0.4777   11.3606   -0.0002 N.ar    1  LIG1       -0.1338
     21 H          -1.0005   12.8026   -0.0002 H       1  LIG1        0.1085
@<TRIPOS>BOND
     1     7     2    1
     2    17    20   ar
     3    17    21    1
     4    17    19   ar
     5     2     1   ar
     6     2     3   ar
     7    20    18   ar
     8    14    12   ar
     9    14    11   ar
    10    12     9   ar
    11    19    16   ar
    12     5     4   ar
    13     5     1   ar
    14    18    15   ar
    15    16    15   ar
    16    11    15    1
    17    11    13   ar
    18     9     4    1
    19     9    10   ar
    20     4     3   ar
    21     6     1    1
    22    13    10   ar
    23     3     8    1
