@<TRIPOS>MOLECULE
mol_data/opt/m06hf/geoms/mol2/12aa12aa12aa12aa.out
 30 33 0 0 0
SMALL
GASTEIGER

@<TRIPOS>ATOM
      1 C           0.6752    1.6857   -0.0000 C.ar    1  LIG1        0.0927
      2 C           2.0229    1.8365   -0.0001 C.ar    1  LIG1       -0.0232
      3 C           2.2594    3.2529    0.0000 C.ar    1  LIG1       -0.0128
      4 C           1.0276    3.8324   -0.0001 C.ar    1  LIG1        0.1697
      5 O           0.0672    2.8879   -0.0001 O.2     1  LIG1       -0.4598
      6 H           0.0286    0.8263   -0.0000 H       1  LIG1        0.1029
      7 H           2.7577    1.0507   -0.0002 H       1  LIG1        0.0649
      8 H           3.2075    3.7623    0.0001 H       1  LIG1        0.0656
      9 C           0.6004    5.2250   -0.0001 C.ar    1  LIG1        0.1707
     10 C           1.2951    6.3974   -0.0000 C.ar    1  LIG1       -0.0121
     11 C           0.3110    7.4360   -0.0001 C.ar    1  LIG1       -0.0121
     12 C          -0.8970    6.8047   -0.0001 C.ar    1  LIG1        0.1707
     13 O          -0.7246    5.4684   -0.0001 O.2     1  LIG1       -0.4486
     14 H           2.3655    6.5073    0.0000 H       1  LIG1        0.0657
     15 H           0.4783    8.4993   -0.0001 H       1  LIG1        0.0657
     16 C          -2.2636    7.3052   -0.0002 C.ar    1  LIG1        0.1707
     17 C          -2.7782    8.5674   -0.0002 C.ar    1  LIG1       -0.0121
     18 C          -4.2003    8.4099   -0.0003 C.ar    1  LIG1       -0.0121
     19 C          -4.4271    7.0662   -0.0003 C.ar    1  LIG1        0.1707
     20 O          -3.2582    6.3963   -0.0002 O.2     1  LIG1       -0.4486
     21 H          -2.2192    9.4872   -0.0002 H       1  LIG1        0.0657
     22 H          -4.9466    9.1852   -0.0003 H       1  LIG1        0.0657
     23 C          -5.6527    6.2789   -0.0003 C.ar    1  LIG1        0.1697
     24 C          -6.9674    6.6320   -0.0004 C.ar    1  LIG1       -0.0128
     25 C          -7.7016    5.3979   -0.0004 C.ar    1  LIG1       -0.0232
     26 C          -6.7700    4.4124   -0.0003 C.ar    1  LIG1        0.0927
     27 O          -5.5294    4.9375   -0.0003 O.2     1  LIG1       -0.4598
     28 H          -6.8313    3.3386   -0.0003 H       1  LIG1        0.1029
     29 H          -7.3623    7.6333   -0.0004 H       1  LIG1        0.0656
     30 H          -8.7701    5.2726   -0.0004 H       1  LIG1        0.0649
@<TRIPOS>BOND
     1    30    25    1
     2    25    24   ar
     3    25    26   ar
     4    29    24    1
     5    24    23   ar
     6    26    28    1
     7    26    27   ar
     8    23    27   ar
     9    23    19    1
    10    22    18    1
    11    19    18   ar
    12    19    20   ar
    13    18    17   ar
    14    20    16   ar
    15    17    21    1
    16    17    16   ar
    17    16    12    1
    18     7     2    1
    19    12    13   ar
    20    12    11   ar
    21    13     9   ar
    22     2     1   ar
    23     2     3   ar
    24     5     4   ar
    25     5     1   ar
    26    11    15    1
    27    11    10   ar
    28     9     4    1
    29     9    10   ar
    30     4     3   ar
    31    10    14    1
    32     1     6    1
    33     3     8    1
