@<TRIPOS>MOLECULE
mol_data/opt/m06hf/geoms/mol2/12aa12aa-12aa12aa-.out
 30 33 0 0 0
SMALL
GASTEIGER

@<TRIPOS>ATOM
      1 C           0.1753    1.7294   -0.0000 C.ar    1  LIG1        0.0927
      2 C           1.5300    1.7123   -0.0002 C.ar    1  LIG1       -0.0232
      3 C           1.9443    3.0895    0.0000 C.ar    1  LIG1       -0.0128
      4 C           0.7956    3.8157   -0.0001 C.ar    1  LIG1        0.1697
      5 O          -0.2792    3.0006   -0.0001 O.2     1  LIG1       -0.4598
      6 H          -0.5712    0.9554    0.0000 H       1  LIG1        0.1029
      7 H           2.1603    0.8401   -0.0002 H       1  LIG1        0.0649
      8 H           2.9452    3.4851    0.0001 H       1  LIG1        0.0656
      9 C           0.5321    5.2440   -0.0001 C.ar    1  LIG1        0.1707
     10 C          -0.6180    5.9702   -0.0001 C.ar    1  LIG1       -0.0121
     11 C          -0.2120    7.3460   -0.0001 C.ar    1  LIG1       -0.0121
     12 C           1.1482    7.3318   -0.0001 C.ar    1  LIG1        0.1707
     13 O           1.6076    6.0612   -0.0001 O.2     1  LIG1       -0.4486
     14 H          -1.6177    5.5715   -0.0001 H       1  LIG1        0.0657
     15 H          -0.8347    8.2235   -0.0001 H       1  LIG1        0.0657
     16 C           2.1423    8.3875   -0.0001 C.ar    1  LIG1        0.1707
     17 C           3.5025    8.3733   -0.0001 C.ar    1  LIG1       -0.0121
     18 C           3.9085    9.7490   -0.0001 C.ar    1  LIG1       -0.0121
     19 C           2.7583   10.4752   -0.0002 C.ar    1  LIG1        0.1707
     20 O           1.6829    9.6580   -0.0002 O.2     1  LIG1       -0.4486
     21 H           4.1252    7.4958   -0.0000 H       1  LIG1        0.0657
     22 H           4.9081   10.1478   -0.0001 H       1  LIG1        0.0657
     23 C           2.4949   11.9036   -0.0002 C.ar    1  LIG1        0.1697
     24 C           1.3462   12.6297   -0.0002 C.ar    1  LIG1       -0.0128
     25 C           1.7604   14.0069   -0.0003 C.ar    1  LIG1       -0.0232
     26 C           3.1152   13.9898   -0.0003 C.ar    1  LIG1        0.0927
     27 O           3.5697   12.7186   -0.0003 O.2     1  LIG1       -0.4598
     28 H           3.8616   14.7638   -0.0004 H       1  LIG1        0.1029
     29 H           0.3453   12.2342   -0.0002 H       1  LIG1        0.0656
     30 H           1.1302   14.8791   -0.0003 H       1  LIG1        0.0649
@<TRIPOS>BOND
     1    28    26    1
     2    30    25    1
     3    26    25   ar
     4    26    27   ar
     5    25    24   ar
     6    27    23   ar
     7    24    23   ar
     8    24    29    1
     9     7     2    1
    10    23    19    1
    11    19    20   ar
    12    19    18   ar
    13    20    16   ar
    14     2     1   ar
    15     2     3   ar
    16    14    10    1
    17    16    12    1
    18    16    17   ar
    19    18    22    1
    20    18    17   ar
    21    10    11   ar
    22    10     9   ar
    23     5     4   ar
    24     5     1   ar
    25    12    11   ar
    26    12    13   ar
    27    15    11    1
    28     9    13   ar
    29     9     4    1
    30    17    21    1
    31     4     3   ar
    32     1     6    1
    33     3     8    1
