@<TRIPOS>MOLECULE
mol_data/opt/m06hf/geoms/mol2/12aa12aa-12aa.out
 23 25 0 0 0
SMALL
GASTEIGER

@<TRIPOS>ATOM
      1 C           0.1734    1.7785   -0.0003 C.ar    1  LIG1        0.0927
      2 C           1.5278    1.7590    0.0002 C.ar    1  LIG1       -0.0232
      3 C           1.9439    3.1357   -0.0001 C.ar    1  LIG1       -0.0128
      4 C           0.7970    3.8635   -0.0001 C.ar    1  LIG1        0.1697
      5 O          -0.2796    3.0505   -0.0001 O.2     1  LIG1       -0.4598
      6 H          -0.5751    1.0068   -0.0004 H       1  LIG1        0.1029
      7 H           2.1567    0.8856    0.0004 H       1  LIG1        0.0649
      8 H           2.9447    3.5312   -0.0001 H       1  LIG1        0.0656
      9 C           0.5386    5.2929   -0.0001 C.ar    1  LIG1        0.1707
     10 C          -0.6085    6.0223    0.0000 C.ar    1  LIG1       -0.0121
     11 C          -0.1978    7.3973   -0.0001 C.ar    1  LIG1       -0.0121
     12 C           1.1614    7.3782   -0.0001 C.ar    1  LIG1        0.1707
     13 O           1.6172    6.1064   -0.0001 O.2     1  LIG1       -0.4486
     14 H          -1.6088    5.6255    0.0001 H       1  LIG1        0.0657
     15 H          -0.8167    8.2777   -0.0001 H       1  LIG1        0.0657
     16 C           2.1614    8.4317   -0.0001 C.ar    1  LIG1        0.1697
     17 C           3.5196    8.4112   -0.0001 C.ar    1  LIG1       -0.0128
     18 C           3.9267    9.7907   -0.0002 C.ar    1  LIG1       -0.0232
     19 C           2.7835   10.5171   -0.0003 C.ar    1  LIG1        0.0927
     20 O           1.7070    9.7019   -0.0002 O.2     1  LIG1       -0.4598
     21 H           2.5807   11.5730   -0.0004 H       1  LIG1        0.1029
     22 H           4.1396    7.5317    0.0000 H       1  LIG1        0.0656
     23 H           4.9316   10.1761   -0.0002 H       1  LIG1        0.0649
@<TRIPOS>BOND
     1    21    19    1
     2     6     1    1
     3    19    20   ar
     4    19    18   ar
     5     1     5   ar
     6     1     2   ar
     7    20    16   ar
     8    18    23    1
     9    18    17   ar
    10    16    12    1
    11    16    17   ar
    12     5     4   ar
    13     3     8    1
    14     3     4   ar
    15     3     2   ar
    16    13    12   ar
    17    13     9   ar
    18    12    11   ar
    19    15    11    1
    20    11    10   ar
    21     4     9    1
    22    17    22    1
    23     9    10   ar
    24    10    14    1
    25     2     7    1
