@<TRIPOS>MOLECULE
mol_data/opt/m06hf/geoms/mol2/12aa12aa12aa-12aa.out
 30 33 0 0 0
SMALL
GASTEIGER

@<TRIPOS>ATOM
      1 C           0.3539    1.6859   -0.0001 C.ar    1  LIG1        0.0927
      2 C           1.7080    1.7477    0.0001 C.ar    1  LIG1       -0.0232
      3 C           2.0383    3.1454   -0.0001 C.ar    1  LIG1       -0.0128
      4 C           0.8480    3.8055   -0.0001 C.ar    1  LIG1        0.1697
      5 O          -0.1734    2.9264   -0.0001 O.2     1  LIG1       -0.4598
      6 H          -0.3477    0.8706   -0.0002 H       1  LIG1        0.1029
      7 H           2.3903    0.9154    0.0002 H       1  LIG1        0.0649
      8 H           3.0183    3.5904   -0.0000 H       1  LIG1        0.0656
      9 C           0.5103    5.2226   -0.0001 C.ar    1  LIG1        0.1707
     10 C           1.2721    6.3519   -0.0001 C.ar    1  LIG1       -0.0121
     11 C           0.3510    7.4497   -0.0001 C.ar    1  LIG1       -0.0121
     12 C          -0.8895    6.8901   -0.0001 C.ar    1  LIG1        0.1707
     13 O          -0.8005    5.5444   -0.0001 O.2     1  LIG1       -0.4486
     14 H           2.3475    6.3983   -0.0001 H       1  LIG1        0.0657
     15 H           0.5714    8.5028   -0.0001 H       1  LIG1        0.0657
     16 C          -2.2251    7.4545   -0.0002 C.ar    1  LIG1        0.1707
     17 C          -3.4615    6.8876   -0.0002 C.ar    1  LIG1       -0.0121
     18 C          -4.3917    7.9792   -0.0002 C.ar    1  LIG1       -0.0121
     19 C          -3.6367    9.1109   -0.0002 C.ar    1  LIG1        0.1707
     20 O          -2.3214    8.8024   -0.0002 O.2     1  LIG1       -0.4486
     21 H          -3.6717    5.8322   -0.0002 H       1  LIG1        0.0657
     22 H          -5.4669    7.9364   -0.0002 H       1  LIG1        0.0657
     23 C          -3.9788   10.5222   -0.0003 C.ar    1  LIG1        0.1697
     24 C          -3.2263   11.6541   -0.0002 C.ar    1  LIG1       -0.0128
     25 C          -4.1661   12.7423   -0.0003 C.ar    1  LIG1       -0.0232
     26 C          -5.3960   12.1738   -0.0003 C.ar    1  LIG1        0.0927
     27 O          -5.2927   10.8275   -0.0003 O.2     1  LIG1       -0.4598
     28 H          -6.3935   12.5755   -0.0004 H       1  LIG1        0.1029
     29 H          -2.1514   11.7016   -0.0002 H       1  LIG1        0.0656
     30 H          -3.9464   13.7958   -0.0003 H       1  LIG1        0.0649
@<TRIPOS>BOND
     1    28    26    1
     2    26    27   ar
     3    26    25   ar
     4    27    23   ar
     5    25    30    1
     6    25    24   ar
     7    23    24   ar
     8    23    19    1
     9    24    29    1
    10    22    18    1
    11    19    18   ar
    12    19    20   ar
    13    18    17   ar
    14    20    16   ar
    15     6     1    1
    16    17    16   ar
    17    17    21    1
    18    16    12    1
    19     1     5   ar
    20     1     2   ar
    21    12    13   ar
    22    12    11   ar
    23    13     9   ar
    24     5     4   ar
    25    11    15    1
    26    11    10   ar
    27     9    10   ar
    28     9     4    1
    29    10    14    1
    30     4     3   ar
    31     3     8    1
    32     3     2   ar
    33     2     7    1
