@<TRIPOS>MOLECULE
mol_data/opt/m06hf/geoms/mol2/12aa12aa-12aa12aa.out
 30 33 0 0 0
SMALL
GASTEIGER

@<TRIPOS>ATOM
      1 C           0.2002    1.7094   -0.0001 C.ar    1  LIG1        0.0927
      2 C           1.5551    1.7000    0.0001 C.ar    1  LIG1       -0.0232
      3 C           1.9610    3.0794   -0.0001 C.ar    1  LIG1       -0.0128
      4 C           0.8079    3.7991   -0.0001 C.ar    1  LIG1        0.1697
      5 O          -0.2623    2.9779   -0.0001 O.2     1  LIG1       -0.4598
      6 H          -0.5421    0.9311   -0.0002 H       1  LIG1        0.1029
      7 H           2.1906    0.8316    0.0002 H       1  LIG1        0.0649
      8 H           2.9594    3.4805   -0.0000 H       1  LIG1        0.0656
      9 C           0.5359    5.2255   -0.0001 C.ar    1  LIG1        0.1707
     10 C          -0.6193    5.9439   -0.0001 C.ar    1  LIG1       -0.0121
     11 C          -0.2236    7.3223   -0.0001 C.ar    1  LIG1       -0.0121
     12 C           1.1366    7.3173   -0.0001 C.ar    1  LIG1        0.1707
     13 O           1.6061    6.0502   -0.0001 O.2     1  LIG1       -0.4486
     14 H          -1.6160    5.5384   -0.0001 H       1  LIG1        0.0657
     15 H          -0.8513    8.1965   -0.0001 H       1  LIG1        0.0657
     16 C           2.1194    8.3833   -0.0001 C.ar    1  LIG1        0.1707
     17 C           3.4803    8.3866   -0.0001 C.ar    1  LIG1       -0.0121
     18 C           3.8652    9.7669   -0.0001 C.ar    1  LIG1       -0.0121
     19 C           2.7047   10.4803   -0.0002 C.ar    1  LIG1        0.1707
     20 O           1.6442    9.6454   -0.0002 O.2     1  LIG1       -0.4486
     21 H           4.1163    7.5188   -0.0001 H       1  LIG1        0.0657
     22 H           4.8635   10.1693   -0.0001 H       1  LIG1        0.0657
     23 C           2.4264   11.9102   -0.0002 C.ar    1  LIG1        0.1697
     24 C           3.2373   13.0034   -0.0002 C.ar    1  LIG1       -0.0128
     25 C           2.3588   14.1396   -0.0002 C.ar    1  LIG1       -0.0232
     26 C           1.1003   13.6361   -0.0003 C.ar    1  LIG1        0.0927
     27 O           1.1330   12.2885   -0.0002 O.2     1  LIG1       -0.4598
     28 H           0.1244   14.0884   -0.0003 H       1  LIG1        0.1029
     29 H           4.3136   13.0033   -0.0002 H       1  LIG1        0.0656
     30 H           2.6360   15.1795   -0.0003 H       1  LIG1        0.0649
@<TRIPOS>BOND
     1    28    26    1
     2    26    25   ar
     3    26    27   ar
     4    30    25    1
     5    25    24   ar
     6    27    23   ar
     7    24    23   ar
     8    24    29    1
     9    23    19    1
    10    20    19   ar
    11    20    16   ar
    12    19    18   ar
    13     6     1    1
    14    15    11    1
    15    11    12   ar
    16    11    10   ar
    17    16    12    1
    18    16    17   ar
    19    12    13   ar
    20    18    22    1
    21    18    17   ar
    22     1     5   ar
    23     1     2   ar
    24    13     9   ar
    25     5     4   ar
    26     9    10   ar
    27     9     4    1
    28    10    14    1
    29    17    21    1
    30     4     3   ar
    31     3     8    1
    32     3     2   ar
    33     2     7    1
