@<TRIPOS>MOLECULE
mol_data/opt/m06hf/geoms/mol2/12aa12aa12aa12aa-.out
 30 33 0 0 0
SMALL
GASTEIGER

@<TRIPOS>ATOM
      1 C           0.5883    1.6857    0.0000 C.ar    1  LIG1        0.0927
      2 C           1.9381    1.8144   -0.0001 C.ar    1  LIG1       -0.0232
      3 C           2.1980    3.2268    0.0000 C.ar    1  LIG1       -0.0128
      4 C           0.9763    3.8267   -0.0000 C.ar    1  LIG1        0.1697
      5 O          -0.0002    2.8980   -0.0001 O.2     1  LIG1       -0.4598
      6 H          -0.0720    0.8367    0.0000 H       1  LIG1        0.1029
      7 H           2.6599    1.0166   -0.0002 H       1  LIG1        0.0649
      8 H           3.1546    3.7202    0.0001 H       1  LIG1        0.0656
      9 C           0.5715    5.2261   -0.0001 C.ar    1  LIG1        0.1707
     10 C           1.2840    6.3876   -0.0000 C.ar    1  LIG1       -0.0121
     11 C           0.3159    7.4416   -0.0001 C.ar    1  LIG1       -0.0121
     12 C          -0.9016    6.8292   -0.0001 C.ar    1  LIG1        0.1707
     13 O          -0.7499    5.4899   -0.0001 O.2     1  LIG1       -0.4486
     14 H           2.3560    6.4812    0.0000 H       1  LIG1        0.0657
     15 H           0.4996    8.5022   -0.0001 H       1  LIG1        0.0657
     16 C          -2.2615    7.3467   -0.0002 C.ar    1  LIG1        0.1707
     17 C          -2.7660    8.6124   -0.0002 C.ar    1  LIG1       -0.0121
     18 C          -4.1915    8.4689   -0.0003 C.ar    1  LIG1       -0.0121
     19 C          -4.4272    7.1287   -0.0003 C.ar    1  LIG1        0.1707
     20 O          -3.2655    6.4451   -0.0002 O.2     1  LIG1       -0.4486
     21 H          -2.1978    9.5267   -0.0002 H       1  LIG1        0.0657
     22 H          -4.9381    9.2434   -0.0003 H       1  LIG1        0.0657
     23 C          -5.6460    6.3397   -0.0003 C.ar    1  LIG1        0.1697
     24 C          -5.8692    4.9995   -0.0003 C.ar    1  LIG1       -0.0128
     25 C          -7.2989    4.8474   -0.0003 C.ar    1  LIG1       -0.0232
     26 C          -7.8087    6.1031   -0.0004 C.ar    1  LIG1        0.0927
     27 O          -6.8134    7.0160   -0.0004 O.2     1  LIG1       -0.4598
     28 H          -8.8111    6.4924   -0.0005 H       1  LIG1        0.1029
     29 H          -5.1142    4.2328   -0.0002 H       1  LIG1        0.0656
     30 H          -7.8592    3.9287   -0.0003 H       1  LIG1        0.0649
@<TRIPOS>BOND
     1    28    26    1
     2    26    27   ar
     3    26    25   ar
     4    27    23   ar
     5    22    18    1
     6    25    30    1
     7    25    24   ar
     8    23    19    1
     9    23    24   ar
    10    18    19   ar
    11    18    17   ar
    12    19    20   ar
    13    24    29    1
    14    17    21    1
    15    17    16   ar
    16    20    16   ar
    17    16    12    1
    18     7     2    1
    19    12    13   ar
    20    12    11   ar
    21    13     9   ar
    22     2     1   ar
    23     2     3   ar
    24    15    11    1
    25    11    10   ar
    26     5     4   ar
    27     5     1   ar
    28     9     4    1
    29     9    10   ar
    30     4     3   ar
    31    10    14    1
    32     1     6    1
    33     3     8    1
