@<TRIPOS>MOLECULE
mol_data/opt/m06hf/geoms/mol2/12aa12aa-12aa-12aa.out
 30 33 0 0 0
SMALL
GASTEIGER

@<TRIPOS>ATOM
      1 C          -0.0087    1.7376    0.0001 C.ar    1  LIG1        0.0927
      2 C           1.3451    1.6750   -0.0001 C.ar    1  LIG1       -0.0232
      3 C           1.8048    3.0373    0.0000 C.ar    1  LIG1       -0.0128
      4 C           0.6810    3.8011   -0.0001 C.ar    1  LIG1        0.1697
      5 O          -0.4213    3.0235   -0.0000 O.2     1  LIG1       -0.4598
      6 H          -0.7819    0.9902    0.0001 H       1  LIG1        0.1029
      7 H           1.9454    0.7819   -0.0002 H       1  LIG1        0.0649
      8 H           2.8171    3.4014    0.0000 H       1  LIG1        0.0656
      9 C           0.4732    5.2381   -0.0001 C.ar    1  LIG1        0.1707
     10 C          -0.6468    6.0106   -0.0001 C.ar    1  LIG1       -0.0121
     11 C          -0.1837    7.3665   -0.0001 C.ar    1  LIG1       -0.0121
     12 C           1.1770    7.2984   -0.0001 C.ar    1  LIG1        0.1707
     13 O           1.5792    6.0096   -0.0001 O.2     1  LIG1       -0.4486
     14 H          -1.6618    5.6544   -0.0001 H       1  LIG1        0.0657
     15 H          -0.7785    8.2637   -0.0001 H       1  LIG1        0.0657
     16 C           2.2141    8.3186   -0.0002 C.ar    1  LIG1        0.1707
     17 C           2.1682    9.6803   -0.0002 C.ar    1  LIG1       -0.0121
     18 C           3.5315   10.1211   -0.0002 C.ar    1  LIG1       -0.0121
     19 C           4.2856    8.9886   -0.0002 C.ar    1  LIG1        0.1707
     20 O           3.4961    7.8954   -0.0001 O.2     1  LIG1       -0.4486
     21 H           1.2808   10.2897   -0.0002 H       1  LIG1        0.0657
     22 H           3.9043   11.1302   -0.0002 H       1  LIG1        0.0657
     23 C           5.7191    8.7573   -0.0002 C.ar    1  LIG1        0.1697
     24 C           6.4644    7.6212   -0.0001 C.ar    1  LIG1       -0.0128
     25 C           7.8339    8.0586   -0.0001 C.ar    1  LIG1       -0.0232
     26 C           7.7936    9.4132   -0.0002 C.ar    1  LIG1        0.0927
     27 O           6.5145    9.8468   -0.0002 O.2     1  LIG1       -0.4598
     28 H           8.5534   10.1741   -0.0002 H       1  LIG1        0.1029
     29 H           6.0838    6.6150   -0.0000 H       1  LIG1        0.0656
     30 H           8.7171    7.4438   -0.0001 H       1  LIG1        0.0649
@<TRIPOS>BOND
     1    28    26    1
     2     7     2    1
     3    27    26   ar
     4    27    23   ar
     5    22    18    1
     6    21    17    1
     7    18    17   ar
     8    18    19   ar
     9    26    25   ar
    10    17    16   ar
    11    19    23    1
    12    19    20   ar
    13    23    24   ar
    14    16    20   ar
    15    16    12    1
    16     2     3   ar
    17     2     1   ar
    18    12    11   ar
    19    12    13   ar
    20    15    11    1
    21    25    30    1
    22    25    24   ar
    23    11    10   ar
    24    10    14    1
    25    10     9   ar
    26    13     9   ar
    27     9     4    1
    28    24    29    1
    29     4     5   ar
    30     4     3   ar
    31     5     1   ar
    32     3     8    1
    33     1     6    1
