@<TRIPOS>MOLECULE
mol_data/opt/m06hf/geoms/mol2/12aa12aa12aa-12aa-.out
 30 33 0 0 0
SMALL
GASTEIGER

@<TRIPOS>ATOM
      1 C           0.3411    1.6627   -0.0000 C.ar    1  LIG1        0.0927
      2 C           1.6954    1.7211   -0.0001 C.ar    1  LIG1       -0.0232
      3 C           2.0292    3.1181   -0.0000 C.ar    1  LIG1       -0.0128
      4 C           0.8410    3.7817   -0.0001 C.ar    1  LIG1        0.1697
      5 O          -0.1826    2.9047   -0.0001 O.2     1  LIG1       -0.4598
      6 H          -0.3622    0.8490    0.0000 H       1  LIG1        0.1029
      7 H           2.3754    0.8870   -0.0002 H       1  LIG1        0.0649
      8 H           3.0107    3.5600   -0.0000 H       1  LIG1        0.0656
      9 C           0.5108    5.2006   -0.0001 C.ar    1  LIG1        0.1707
     10 C           1.2826    6.3233   -0.0001 C.ar    1  LIG1       -0.0121
     11 C           0.3720    7.4294   -0.0001 C.ar    1  LIG1       -0.0121
     12 C          -0.8733    6.8808   -0.0001 C.ar    1  LIG1        0.1707
     13 O          -0.7971    5.5339   -0.0001 O.2     1  LIG1       -0.4486
     14 H           2.3582    6.3591   -0.0000 H       1  LIG1        0.0657
     15 H           0.5997    8.4811   -0.0001 H       1  LIG1        0.0657
     16 C          -2.2023    7.4611   -0.0002 C.ar    1  LIG1        0.1707
     17 C          -3.4476    6.9125   -0.0002 C.ar    1  LIG1       -0.0121
     18 C          -4.3581    8.0186   -0.0002 C.ar    1  LIG1       -0.0121
     19 C          -3.5863    9.1413   -0.0002 C.ar    1  LIG1        0.1707
     20 O          -2.2784    8.8080   -0.0002 O.2     1  LIG1       -0.4486
     21 H          -3.6752    5.8608   -0.0001 H       1  LIG1        0.0657
     22 H          -5.4338    7.9828   -0.0002 H       1  LIG1        0.0657
     23 C          -3.9165   10.5602   -0.0003 C.ar    1  LIG1        0.1697
     24 C          -5.1047   11.2238   -0.0003 C.ar    1  LIG1       -0.0128
     25 C          -4.7709   12.6208   -0.0004 C.ar    1  LIG1       -0.0232
     26 C          -3.4166   12.6792   -0.0003 C.ar    1  LIG1        0.0927
     27 O          -2.8930   11.4372   -0.0003 O.2     1  LIG1       -0.4598
     28 H          -2.7133   13.4930   -0.0003 H       1  LIG1        0.1029
     29 H          -6.0862   10.7820   -0.0003 H       1  LIG1        0.0656
     30 H          -5.4509   13.4549   -0.0004 H       1  LIG1        0.0649
@<TRIPOS>BOND
     1    30    25    1
     2    25    24   ar
     3    25    26   ar
     4    29    24    1
     5    24    23   ar
     6    26    28    1
     7    26    27   ar
     8    23    27   ar
     9    23    19    1
    10    19    18   ar
    11    19    20   ar
    12    22    18    1
    13    18    17   ar
    14    20    16   ar
    15     7     2    1
    16    17    16   ar
    17    17    21    1
    18    16    12    1
    19     2     3   ar
    20     2     1   ar
    21    12    13   ar
    22    12    11   ar
    23    13     9   ar
    24    11    15    1
    25    11    10   ar
    26     9     4    1
    27     9    10   ar
    28     4     5   ar
    29     4     3   ar
    30     5     1   ar
    31    10    14    1
    32     3     8    1
    33     1     6    1
