@<TRIPOS>MOLECULE
mol_data/opt/m06hf/geoms/mol2/12aa12aa12aa.out
 23 25 0 0 0
SMALL
GASTEIGER

@<TRIPOS>ATOM
      1 C           0.4028    1.6960   -0.0003 C.ar    1  LIG1        0.0927
      2 C           1.7546    1.7940    0.0002 C.ar    1  LIG1       -0.0232
      3 C           2.0466    3.2004   -0.0001 C.ar    1  LIG1       -0.0128
      4 C           0.8382    3.8273   -0.0001 C.ar    1  LIG1        0.1697
      5 O          -0.1585    2.9210   -0.0001 O.2     1  LIG1       -0.4598
      6 H          -0.2757    0.8619   -0.0004 H       1  LIG1        0.1029
      7 H           2.4584    0.9798    0.0004 H       1  LIG1        0.0649
      8 H           3.0142    3.6726   -0.0000 H       1  LIG1        0.0656
      9 C           0.4683    5.2366   -0.0001 C.ar    1  LIG1        0.1707
     10 C           1.2115    6.3777   -0.0001 C.ar    1  LIG1       -0.0121
     11 C           0.2715    7.4573   -0.0002 C.ar    1  LIG1       -0.0121
     12 C          -0.9610    6.8781   -0.0002 C.ar    1  LIG1        0.1707
     13 O          -0.8458    5.5353   -0.0001 O.2     1  LIG1       -0.4486
     14 H           2.2860    6.4424   -0.0001 H       1  LIG1        0.0657
     15 H           0.4834    8.5127   -0.0002 H       1  LIG1        0.0657
     16 C          -2.3061    7.4382   -0.0002 C.ar    1  LIG1        0.1697
     17 C          -2.7608    8.7213   -0.0002 C.ar    1  LIG1       -0.0128
     18 C          -4.1940    8.6255   -0.0002 C.ar    1  LIG1       -0.0232
     19 C          -4.4770    7.3001   -0.0003 C.ar    1  LIG1        0.0927
     20 O          -3.3408    6.5756   -0.0001 O.2     1  LIG1       -0.4598
     21 H          -5.3964    6.7427   -0.0003 H       1  LIG1        0.1029
     22 H          -2.1600    9.6149   -0.0002 H       1  LIG1        0.0656
     23 H          -4.9036    9.4346   -0.0002 H       1  LIG1        0.0649
@<TRIPOS>BOND
     1     6     1    1
     2    21    19    1
     3    19    18   ar
     4    19    20   ar
     5     1     5   ar
     6     1     2   ar
     7    23    18    1
     8    18    17   ar
     9    17    22    1
    10    17    16   ar
    11    16    12    1
    12    16    20   ar
    13    15    11    1
    14    12    11   ar
    15    12    13   ar
    16    11    10   ar
    17    10     9   ar
    18    10    14    1
    19     9    13   ar
    20     9     4    1
    21     5     4   ar
    22     4     3   ar
    23     3     8    1
    24     3     2   ar
    25     2     7    1
