@<TRIPOS>MOLECULE
mol_data/opt/m06hf/geoms/mol2/12aa12aa-12aa-12aa-.out
 30 33 0 0 0
SMALL
GASTEIGER

@<TRIPOS>ATOM
      1 C          -0.0750    1.7355    0.0000 C.ar    1  LIG1        0.0927
      2 C           1.2780    1.6585   -0.0001 C.ar    1  LIG1       -0.0232
      3 C           1.7528    3.0157   -0.0000 C.ar    1  LIG1       -0.0128
      4 C           0.6373    3.7912   -0.0001 C.ar    1  LIG1        0.1697
      5 O          -0.4738    3.0259   -0.0001 O.2     1  LIG1       -0.4598
      6 H          -0.8560    0.9964    0.0001 H       1  LIG1        0.1029
      7 H           1.8683    0.7588   -0.0002 H       1  LIG1        0.0649
      8 H           2.7689    3.3696    0.0000 H       1  LIG1        0.0656
      9 C           0.4461    5.2305   -0.0001 C.ar    1  LIG1        0.1707
     10 C          -0.6640    6.0173   -0.0001 C.ar    1  LIG1       -0.0121
     11 C          -0.1833    7.3670   -0.0001 C.ar    1  LIG1       -0.0121
     12 C           1.1766    7.2809   -0.0001 C.ar    1  LIG1        0.1707
     13 O           1.5614    5.9875   -0.0001 O.2     1  LIG1       -0.4486
     14 H          -1.6836    5.6744   -0.0001 H       1  LIG1        0.0657
     15 H          -0.7661    8.2720   -0.0001 H       1  LIG1        0.0657
     16 C           2.2265    8.2882   -0.0001 C.ar    1  LIG1        0.1707
     17 C           2.1945    9.6507   -0.0002 C.ar    1  LIG1       -0.0121
     18 C           3.5615   10.0742   -0.0002 C.ar    1  LIG1       -0.0121
     19 C           4.3061    8.9330   -0.0001 C.ar    1  LIG1        0.1707
     20 O           3.5018    7.8518   -0.0001 O.2     1  LIG1       -0.4486
     21 H           1.3147   10.2709   -0.0002 H       1  LIG1        0.0657
     22 H           3.9360   11.0830   -0.0002 H       1  LIG1        0.0657
     23 C           5.7440    8.6995   -0.0001 C.ar    1  LIG1        0.1697
     24 C           6.8093    9.5467   -0.0002 C.ar    1  LIG1       -0.0128
     25 C           7.9743    8.7070   -0.0002 C.ar    1  LIG1       -0.0232
     26 C           7.5126    7.4321   -0.0001 C.ar    1  LIG1        0.0927
     27 O           6.1651    7.4194   -0.0001 O.2     1  LIG1       -0.4598
     28 H           7.9971    6.4718   -0.0001 H       1  LIG1        0.1029
     29 H           6.7730   10.6224   -0.0002 H       1  LIG1        0.0656
     30 H           9.0044    9.0176   -0.0002 H       1  LIG1        0.0649
@<TRIPOS>BOND
     1    30    25    1
     2    29    24    1
     3     7     2    1
     4    25    24   ar
     5    25    26   ar
     6    24    23   ar
     7    22    18    1
     8    21    17    1
     9    18    17   ar
    10    18    19   ar
    11    17    16   ar
    12    19    23    1
    13    19    20   ar
    14    23    27   ar
    15    16    20   ar
    16    16    12    1
    17    12    11   ar
    18    12    13   ar
    19     2     3   ar
    20     2     1   ar
    21    15    11    1
    22    11    10   ar
    23    10    14    1
    24    10     9   ar
    25    13     9   ar
    26    27    26   ar
    27     9     4    1
    28    26    28    1
    29     4     5   ar
    30     4     3   ar
    31     5     1   ar
    32     3     8    1
    33     1     6    1
