@<TRIPOS>MOLECULE
mol_data/opt/m06hf/geoms/mol2/12aa12aa-.out
 16 17 0 0 0
SMALL
GASTEIGER

@<TRIPOS>ATOM
      1 C           0.2060    1.8205   -0.0001 C.ar    1  LIG1        0.0927
      2 C           1.5607    1.8112    0.0001 C.ar    1  LIG1       -0.0232
      3 C           1.9663    3.1915   -0.0001 C.ar    1  LIG1       -0.0128
      4 C           0.8140    3.9103   -0.0001 C.ar    1  LIG1        0.1696
      5 O          -0.2562    3.0892   -0.0001 O.2     1  LIG1       -0.4598
      6 H          -0.5366    1.0429   -0.0001 H       1  LIG1        0.1029
      7 H           2.1950    0.9418    0.0002 H       1  LIG1        0.0649
      8 H           2.9638    3.5958   -0.0000 H       1  LIG1        0.0656
      9 C           0.5442    5.3396   -0.0001 C.ar    1  LIG1        0.1696
     10 C          -0.6081    6.0584   -0.0001 C.ar    1  LIG1       -0.0128
     11 C          -0.2025    7.4388   -0.0001 C.ar    1  LIG1       -0.0232
     12 C           1.1522    7.4294   -0.0002 C.ar    1  LIG1        0.0927
     13 O           1.6145    6.1607   -0.0002 O.2     1  LIG1       -0.4598
     14 H           1.8949    8.2070   -0.0002 H       1  LIG1        0.1029
     15 H          -1.6055    5.6541   -0.0000 H       1  LIG1        0.0656
     16 H          -0.8368    8.3081   -0.0001 H       1  LIG1        0.0649
@<TRIPOS>BOND
     1    14    12    1
     2    13    12   ar
     3    13     9   ar
     4    12    11   ar
     5     6     1    1
     6    11    16    1
     7    11    10   ar
     8     9     4    1
     9     9    10   ar
    10     5     1   ar
    11     5     4   ar
    12     1     2   ar
    13     4     3   ar
    14    10    15    1
    15     3     8    1
    16     3     2   ar
    17     2     7    1
