@<TRIPOS>MOLECULE
mol_data/opt/m06hf/geoms/mol2/12aa4fd-4al-12di4ah-12dh-13li-6ll.out
 100 107 0 0 0
SMALL
GASTEIGER

@<TRIPOS>ATOM
      1 C           3.6817    2.2744   -2.6243 C.ar    1  LIG1        0.0926
      2 C           4.2692    2.0547   -1.4237 C.ar    1  LIG1       -0.0233
      3 C           3.9685    3.2069   -0.6194 C.ar    1  LIG1       -0.0158
      4 C           3.2214    4.0305   -1.4061 C.ar    1  LIG1        0.1383
      5 O           3.0471    3.4630   -2.6241 O.2     1  LIG1       -0.4628
      6 H           3.6287    1.7065   -3.5362 H       1  LIG1        0.1029
      7 H           4.8444    1.1911   -1.1389 H       1  LIG1        0.0649
      8 H           4.2624    3.3992    0.3957 H       1  LIG1        0.0655
      9 C           2.7029    6.0605   -0.0249 C.ar    1  LIG1        0.1281
     10 C           2.1024    7.3080    0.1173 C.ar    1  LIG1       -0.0105
     11 C           2.5942    5.3450   -1.2265 C.ar    1  LIG1        0.0599
     12 C           1.3791    7.8885   -0.9217 C.ar    1  LIG1        0.0031
     13 H           2.1762    7.8317    1.0639 H       1  LIG1        0.0661
     14 C           1.8675    5.9192   -2.2658 C.ar    1  LIG1       -0.0296
     15 C           1.2679    7.1694   -2.1213 C.ar    1  LIG1        0.0604
     16 H           1.7772    5.3870   -3.2028 H       1  LIG1        0.0639
     17 O           3.4018    5.4916    0.9848 O.3     1  LIG1       -0.5060
     18 H           3.4304    6.0690    1.7555 H       1  LIG1        0.2922
     19 N          -0.0419    8.1013   -4.1611 N.1     1  LIG1       -0.1908
     20 C           0.5448    7.7071   -3.2564 C.1     1  LIG1        0.0998
     21 C           1.5179   10.2532   -0.1314 C.ar    1  LIG1       -0.0531
     22 C           0.9450   11.5052    0.0565 C.ar    1  LIG1       -0.0469
     23 C           0.7738    9.2386   -0.7318 C.ar    1  LIG1       -0.0130
     24 C          -0.3544   11.7714   -0.3714 C.ar    1  LIG1        0.0602
     25 H           1.5158   12.2933    0.5301 H       1  LIG1        0.0626
     26 C          -0.5350    9.4872   -1.1517 C.ar    1  LIG1       -0.0115
     27 C          -1.0953   10.7532   -1.0011 C.ar    1  LIG1        0.1313
     28 H          -1.1092    8.6915   -1.6032 H       1  LIG1        0.0660
     29 H           2.5429   10.0752    0.1645 H       1  LIG1        0.0624
     30 O          -2.3286   11.0669   -1.4526 O.3     1  LIG1       -0.4944
     31 C          -2.9673   10.1473   -2.3277 C.3     1  LIG1        0.0788
     32 H          -3.8392   10.6691   -2.7124 H       1  LIG1        0.0660
     33 H          -2.3002    9.8713   -3.1472 H       1  LIG1        0.0660
     34 H          -3.2839    9.2544   -1.7831 H       1  LIG1        0.0660
     35 C          -0.9119   13.1195   -0.1961 C.ar    1  LIG1        0.1567
     36 C          -0.3363   14.3611   -0.2431 C.ar    1  LIG1        0.1010
     37 C          -1.3690   15.3304    0.0213 C.ar    1  LIG1        0.0133
     38 C          -2.4939   14.5857    0.2165 C.ar    1  LIG1        0.1399
     39 O          -2.2087   13.2657    0.0868 O.2     1  LIG1       -0.4531
     40 N           2.1342   14.9017   -0.7637 N.1     1  LIG1       -0.1907
     41 C           1.0356   14.6519   -0.5402 C.1     1  LIG1        0.1032
     42 C          -1.1866   16.8268    0.0106 C.3     1  LIG1       -0.0349
     43 H          -1.0388   17.2060    1.0234 H       1  LIG1        0.0279
     44 H          -2.0590   17.3103   -0.4278 H       1  LIG1        0.0279
     45 H          -0.3072   17.0781   -0.5817 H       1  LIG1        0.0279
     46 C          -4.2727   16.1402    1.0475 C.ar    1  LIG1       -0.0503
     47 C          -5.6126   16.3945    1.2563 C.ar    1  LIG1       -0.0486
     48 C          -3.9031   14.9120    0.4791 C.ar    1  LIG1        0.0194
     49 C          -6.6075   15.4574    0.9372 C.ar    1  LIG1        0.0393
     50 H          -5.9056   17.3410    1.6915 H       1  LIG1        0.0625
     51 C          -4.8689   13.9741    0.1515 C.ar    1  LIG1       -0.0297
     52 C          -6.2393   14.2089    0.3717 C.ar    1  LIG1        0.0360
     53 H          -4.5591   13.0341   -0.2902 H       1  LIG1        0.0643
     54 H          -3.5279   16.8637    1.3430 H       1  LIG1        0.0625
     55 N          -7.1237   13.2295    0.0053 N.pl3   1  LIG1       -0.3574
     56 H          -8.1058   13.2728    0.2363 H       1  LIG1        0.1423
     57 H          -6.7412   12.3150   -0.1690 H       1  LIG1        0.1423
     58 C          -7.9996   15.7888    1.2393 C.ar    1  LIG1        0.1567
     59 C          -8.6248   16.7472    1.9993 C.ar    1  LIG1        0.1187
     60 C         -10.0488   16.5016    1.9076 C.ar    1  LIG1        0.0908
     61 C         -10.1760   15.4151    1.1081 C.ar    1  LIG1        0.1772
     62 O          -8.9541   15.0045    0.7005 O.2     1  LIG1       -0.4499
     63 N          -7.6189   18.6489    3.4197 N.1     1  LIG1       -0.1907
     64 C          -8.0433   17.7923    2.7824 C.1     1  LIG1        0.1048
     65 N         -11.1344   17.1864    2.5155 N.pl3   1  LIG1       -0.3540
     66 H         -11.0366   17.1891    3.5278 H       1  LIG1        0.1425
     67 H         -11.1732   18.1534    2.2035 H       1  LIG1        0.1425
     68 C         -11.3052   14.6333    0.6688 C.ar    1  LIG1        0.1269
     69 C         -11.3284   13.4603   -0.0647 C.ar    1  LIG1        0.1518
     70 C         -12.6717   13.0386   -0.1831 C.ar    1  LIG1        0.0174
     71 C         -13.4329   13.9888    0.5000 C.ar    1  LIG1        0.0588
     72 N         -12.5849   14.9302    1.0025 N.ar    1  LIG1       -0.3484
     73 H         -12.8554   15.7044    1.6008 H       1  LIG1        0.1661
     74 O         -10.2309   12.8110   -0.5668 O.3     1  LIG1       -0.4926
     75 C          -9.8907   13.2361   -1.8892 C.3     1  LIG1        0.0789
     76 H          -9.0448   12.6291   -2.2027 H       1  LIG1        0.0660
     77 H         -10.7400   13.0830   -2.5577 H       1  LIG1        0.0660
     78 H          -9.6068   14.2896   -1.8777 H       1  LIG1        0.0660
     79 C         -13.0771   11.7560   -0.8676 C.3     1  LIG1       -0.0342
     80 H         -13.4971   11.9342   -1.8615 H       1  LIG1        0.0279
     81 H         -13.8060   11.2054   -0.2698 H       1  LIG1        0.0279
     82 H         -12.1847   11.1397   -0.9821 H       1  LIG1        0.0279
     83 C         -15.4910   14.8626    1.6909 C.ar    1  LIG1        0.2240
     84 C         -14.8890   14.0645    0.6962 C.ar    1  LIG1        0.0636
     85 C         -15.7536   13.3356   -0.1179 C.ar    1  LIG1       -0.0042
     86 C         -17.1299   13.3839    0.1016 C.ar    1  LIG1        0.1390
     87 C         -17.6030   14.1924    1.1283 C.ar    1  LIG1        0.0730
     88 N         -16.7900   14.9176    1.8925 N.ar    1  LIG1       -0.2171
     89 H         -15.3425   12.7499   -0.9250 H       1  LIG1        0.0663
     90 H         -18.6667   14.2476    1.3195 H       1  LIG1        0.0868
     91 O         -14.6865   15.6217    2.4735 O.3     1  LIG1       -0.4792
     92 C         -15.3160   16.3818    3.5025 C.3     1  LIG1        0.0804
     93 H         -14.5043   16.8952    4.0104 H       1  LIG1        0.0660
     94 H         -16.0190   17.0923    3.0701 H       1  LIG1        0.0660
     95 H         -15.8470   15.7195    4.1845 H       1  LIG1        0.0660
     96 O         -18.0536   12.7010   -0.6230 O.3     1  LIG1       -0.4936
     97 C         -17.5775   11.7968   -1.6013 C.3     1  LIG1        0.0789
     98 H         -18.4570   11.3077   -2.0101 H       1  LIG1        0.0660
     99 H         -17.0491   12.3273   -2.3980 H       1  LIG1        0.0660
    100 H         -16.9160   11.0522   -1.1492 H       1  LIG1        0.0660
@<TRIPOS>BOND
     1    19    20    3
     2     6     1    1
     3    20    15    1
     4    16    14    1
     5    33    31    1
     6    32    31    1
     7     1     5   ar
     8     1     2   ar
     9     5     4   ar
    10    77    75    1
    11    99    97    1
    12    31    34    1
    13    31    30    1
    14    14    15   ar
    15    14    11   ar
    16    76    75    1
    17    15    12   ar
    18    98    97    1
    19    75    78    1
    20    75    74    1
    21    80    79    1
    22    28    26    1
    23    97   100    1
    24    97    96    1
    25    30    27    1
    26     2     7    1
    27     2     3   ar
    28     4    11    1
    29     4     3   ar
    30    11     9   ar
    31    26    27   ar
    32    26    23   ar
    33    27    24   ar
    34    82    79    1
    35    89    85    1
    36    12    23    1
    37    12    10   ar
    38    79    81    1
    39    79    70    1
    40    40    41    3
    41    23    21   ar
    42    96    86    1
    43     3     8    1
    44    45    42    1
    45    74    69    1
    46    41    36    1
    47    44    42    1
    48    24    35    1
    49    24    22   ar
    50    53    51    1
    51    36    35   ar
    52    36    37   ar
    53    35    39   ar
    54    70    69   ar
    55    70    71   ar
    56    57    55    1
    57    21    22   ar
    58    21    29    1
    59    85    86   ar
    60    85    84   ar
    61    69    68   ar
    62     9    10   ar
    63     9    17    1
    64    55    56    1
    65    55    52    1
    66    42    37    1
    67    42    43    1
    68    37    38   ar
    69    22    25    1
    70    39    38   ar
    71    86    87   ar
    72    10    13    1
    73    51    52   ar
    74    51    48   ar
    75    38    48    1
    76    52    49   ar
    77    48    46   ar
    78    71    84    1
    79    71    72   ar
    80    68    72   ar
    81    68    61    1
    82    84    83   ar
    83    62    61   ar
    84    62    58   ar
    85    49    58    1
    86    49    47   ar
    87    17    18    1
    88    72    73    1
    89    46    47   ar
    90    46    54    1
    91    61    60   ar
    92    87    90    1
    93    87    88   ar
    94    58    59   ar
    95    47    50    1
    96    83    88   ar
    97    83    91    1
    98    60    59   ar
    99    60    65    1
   100    59    64    1
   101    67    65    1
   102    91    92    1
   103    65    66    1
   104    64    63    3
   105    94    92    1
   106    92    93    1
   107    92    95    1
