@<TRIPOS>MOLECULE
mol_data/opt/m06hf/geoms/mol2/12ad6id-13li6hh-.out
 51 54 0 0 0
SMALL
GASTEIGER

@<TRIPOS>ATOM
      1 C          -0.1738   10.1591    8.5960 C.ar    1  LIG1        0.0939
      2 C           0.8374   11.0394    8.7624 C.ar    1  LIG1       -0.0058
      3 C           1.1666   11.4901    7.4354 C.ar    1  LIG1        0.0974
      4 C           0.3269   10.8381    6.5739 C.ar    1  LIG1        0.1538
      5 O          -0.4813   10.0348    7.2847 O.2     1  LIG1       -0.4615
      6 H          -0.7538    9.5662    9.2801 H       1  LIG1        0.1030
      7 H           1.3017   11.3505    9.6817 H       1  LIG1        0.0662
      8 N           2.9661   13.2168    6.7697 N.1     1  LIG1       -0.1907
      9 C           2.1622   12.4537    7.0678 C.1     1  LIG1        0.1030
     10 C          -1.0572   10.7692    4.4690 C.ar    1  LIG1        0.0497
     11 C           0.1961   10.8611    5.1104 C.ar    1  LIG1        0.0408
     12 C           1.3263   11.0146    4.3187 C.ar    1  LIG1       -0.0298
     13 C           1.2049   11.0330    2.9303 C.ar    1  LIG1        0.0799
     14 C          -0.0674   10.8528    2.3631 C.ar    1  LIG1        0.1083
     15 N          -1.1509   10.7567    3.1486 N.ar    1  LIG1       -0.2483
     16 H           2.3060   11.1329    4.7649 H       1  LIG1        0.0639
     17 C          -2.3638   10.6869    5.2303 C.3     1  LIG1       -0.0216
     18 H          -2.3872   11.4232    6.0341 H       1  LIG1        0.0293
     19 H          -2.4783    9.6958    5.6701 H       1  LIG1        0.0293
     20 H          -3.1692   10.8720    4.5240 H       1  LIG1        0.0293
     21 N           3.3945   11.6193    1.6831 N.1     1  LIG1       -0.1908
     22 C           2.3978   11.3238    2.1698 C.1     1  LIG1        0.1014
     23 C          -0.3614   10.7723    0.9353 C.ar    1  LIG1        0.1091
     24 C           0.3532   10.3701   -0.1882 C.ar    1  LIG1        0.1503
     25 C          -0.5337   10.3343   -1.2930 C.ar    1  LIG1        0.0173
     26 C          -1.7750   10.7242   -0.7980 C.ar    1  LIG1        0.0568
     27 N          -1.6511   10.9613    0.5298 N.ar    1  LIG1       -0.3497
     28 H          -2.4126   11.1985    1.1564 H       1  LIG1        0.1661
     29 O           1.6497    9.9679   -0.1808 O.3     1  LIG1       -0.4927
     30 C           2.5227   10.7266   -1.0208 C.3     1  LIG1        0.0789
     31 H           3.5313   10.4092   -0.7717 H       1  LIG1        0.0660
     32 H           2.3089   10.5240   -2.0711 H       1  LIG1        0.0660
     33 H           2.4120   11.7904   -0.8092 H       1  LIG1        0.0660
     34 C          -0.2070    9.8237   -2.6746 C.3     1  LIG1       -0.0342
     35 H           0.1941   10.6088   -3.3204 H       1  LIG1        0.0279
     36 H          -1.1036    9.4136   -3.1411 H       1  LIG1        0.0279
     37 H           0.5368    9.0294   -2.5936 H       1  LIG1        0.0279
     38 C          -4.2889   10.5940   -0.8550 C.ar    1  LIG1        0.1254
     39 C          -3.0652   10.8928   -1.4915 C.ar    1  LIG1        0.0399
     40 C          -3.1146   11.3809   -2.7905 C.ar    1  LIG1       -0.0272
     41 C          -4.3425   11.5571   -3.4342 C.ar    1  LIG1        0.0437
     42 C          -5.4852   11.2468   -2.6999 C.ar    1  LIG1        0.0503
     43 N          -5.4531   10.7771   -1.4546 N.ar    1  LIG1       -0.2382
     44 H          -2.1950   11.6634   -3.2897 H       1  LIG1        0.0644
     45 H          -6.4684   11.3840   -3.1372 H       1  LIG1        0.0849
     46 N          -4.3235   10.1357    0.4742 N.pl3   1  LIG1       -0.3426
     47 H          -5.2716    9.8744    0.7198 H       1  LIG1        0.1437
     48 H          -3.6663    9.3843    0.6617 H       1  LIG1        0.1437
     49 N          -4.4210   12.0961   -4.7250 N.pl3   1  LIG1       -0.3568
     50 H          -3.6369   11.8631   -5.3190 H       1  LIG1        0.1424
     51 H          -5.2988   11.9185   -5.1943 H       1  LIG1        0.1424
@<TRIPOS>BOND
     1    50    49    1
     2    51    49    1
     3    49    41    1
     4    41    40   ar
     5    41    42   ar
     6    35    34    1
     7    44    40    1
     8    36    34    1
     9    45    42    1
    10    40    39   ar
    11    42    43   ar
    12    34    37    1
    13    34    25    1
    14    32    30    1
    15    39    38   ar
    16    39    26    1
    17    43    38   ar
    18    25    26   ar
    19    25    24   ar
    20    30    33    1
    21    30    31    1
    22    30    29    1
    23    38    46    1
    24    26    27   ar
    25    24    29    1
    26    24    23   ar
    27    46    48    1
    28    46    47    1
    29    27    23   ar
    30    27    28    1
    31    23    14    1
    32    21    22    3
    33    22    13    1
    34    14    13   ar
    35    14    15   ar
    36    13    12   ar
    37    15    10   ar
    38    12    16    1
    39    12    11   ar
    40    10    11   ar
    41    10    17    1
    42    20    17    1
    43    11     4    1
    44    17    19    1
    45    17    18    1
    46     4     5   ar
    47     4     3   ar
    48     8     9    3
    49     9     3    1
    50     5     1   ar
    51     3     2   ar
    52     1     2   ar
    53     1     6    1
    54     2     7    1
