@<TRIPOS>MOLECULE
mol_data/opt/m06hf/geoms/mol2/12ad4if-4if-12ee-.out
 49 52 0 0 0
SMALL
GASTEIGER

@<TRIPOS>ATOM
      1 C           1.0547    1.8860    1.5234 C.ar    1  LIG1        0.0939
      2 C           1.3568    1.5231    0.2582 C.ar    1  LIG1       -0.0058
      3 C           1.3239    2.7471   -0.5019 C.ar    1  LIG1        0.0973
      4 C           1.0140    3.7533    0.3718 C.ar    1  LIG1        0.1524
      5 O           0.8462    3.2201    1.5952 O.2     1  LIG1       -0.4616
      6 H           0.9590    1.3379    2.4434 H       1  LIG1        0.1030
      7 H           1.5681    0.5374   -0.1169 H       1  LIG1        0.0662
      8 N           1.6254    2.9697   -3.0556 N.1     1  LIG1       -0.1907
      9 C           1.4930    2.8792   -1.9189 C.1     1  LIG1        0.1030
     10 C           1.6037    6.0418   -0.5122 C.ar    1  LIG1       -0.0390
     11 C           1.2433    7.3908   -0.5866 C.ar    1  LIG1       -0.0469
     12 C           0.7646    5.2009    0.2265 C.ar    1  LIG1        0.0249
     13 C           0.1192    7.9163    0.0415 C.ar    1  LIG1        0.0242
     14 H           1.8654    8.0649   -1.1642 H       1  LIG1        0.0628
     15 C          -0.3657    5.7048    0.8802 C.ar    1  LIG1       -0.0086
     16 C          -0.6925    7.0490    0.7878 C.ar    1  LIG1        0.1252
     17 H          -0.9902    5.0303    1.4548 H       1  LIG1        0.0661
     18 C           2.8763    5.5777   -1.1973 C.3     1  LIG1       -0.0390
     19 H           3.6077    6.3855   -1.1797 H       1  LIG1        0.0278
     20 H           2.6805    5.3039   -2.2347 H       1  LIG1        0.0278
     21 H           3.3014    4.7122   -0.6885 H       1  LIG1        0.0278
     22 O          -1.7931    7.5700    1.3948 O.3     1  LIG1       -0.5061
     23 H          -2.2323    6.9007    1.9296 H       1  LIG1        0.2922
     24 C           0.6745   10.3658    0.3174 C.ar    1  LIG1       -0.0417
     25 C           0.3015   11.6937    0.1151 C.ar    1  LIG1       -0.0440
     26 C          -0.2208    9.3669   -0.0860 C.ar    1  LIG1       -0.0080
     27 C          -0.9205   12.0504   -0.4529 C.ar    1  LIG1        0.0601
     28 H           0.9779   12.4860    0.4124 H       1  LIG1        0.0629
     29 C          -1.4530    9.7087   -0.6442 C.ar    1  LIG1       -0.0114
     30 C          -1.8141   11.0375   -0.8250 C.ar    1  LIG1        0.1281
     31 H          -2.1422    8.9205   -0.9258 H       1  LIG1        0.0660
     32 C           2.0100   10.0566    0.9739 C.3     1  LIG1       -0.0391
     33 H           2.2940   10.8840    1.6240 H       1  LIG1        0.0278
     34 H           2.7967    9.9257    0.2278 H       1  LIG1        0.0278
     35 H           1.9473    9.1456    1.5683 H       1  LIG1        0.0278
     36 O          -3.0193   11.3925   -1.3392 O.3     1  LIG1       -0.5060
     37 H          -3.5555   10.6096   -1.5030 H       1  LIG1        0.2922
     38 C          -1.2544   13.4737   -0.6127 C.ar    1  LIG1        0.1548
     39 C          -0.9680   14.5627    0.1642 C.ar    1  LIG1        0.0858
     40 C          -1.5259   15.7050   -0.5304 C.ar    1  LIG1        0.0783
     41 C          -2.0960   15.2011   -1.6546 C.ar    1  LIG1        0.1092
     42 O          -1.9332   13.8710   -1.7073 O.2     1  LIG1       -0.4603
     43 H          -2.6281   15.6633   -2.4665 H       1  LIG1        0.1042
     44 C          -0.2818   14.5879    1.4190 C.1     1  LIG1       -0.0646
     45 C           0.2944   14.6235    2.4728 C.1     1  LIG1       -0.1138
     46 H           0.7937   14.6577    3.4134 H       1  LIG1        0.1232
     47 C          -1.4895   17.0732   -0.1125 C.1     1  LIG1       -0.0653
     48 C          -1.4572   18.2195    0.2428 C.1     1  LIG1       -0.1138
     49 H          -1.4259   19.2349    0.5627 H       1  LIG1        0.1232
@<TRIPOS>BOND
     1     8     9    3
     2    43    41    1
     3    20    18    1
     4     9     3    1
     5    42    41   ar
     6    42    38   ar
     7    41    40   ar
     8    37    36    1
     9    36    30    1
    10    18    19    1
    11    18    21    1
    12    18    10    1
    13    14    11    1
    14    31    29    1
    15    30    29   ar
    16    30    27   ar
    17    29    26   ar
    18    38    27    1
    19    38    39   ar
    20    11    10   ar
    21    11    13   ar
    22    40    47    1
    23    40    39   ar
    24    10    12   ar
    25     3     2   ar
    26     3     4   ar
    27    27    25   ar
    28     7     2    1
    29    47    48    3
    30    26    13    1
    31    26    24   ar
    32    13    16   ar
    33    25    24   ar
    34    25    28    1
    35    39    44    1
    36    12     4    1
    37    12    15   ar
    38    34    32    1
    39    48    49    1
    40     2     1   ar
    41    24    32    1
    42     4     5   ar
    43    16    15   ar
    44    16    22    1
    45    15    17    1
    46    32    35    1
    47    32    33    1
    48    22    23    1
    49    44    45    3
    50     1     5   ar
    51     1     6    1
    52    45    46    1
