@<TRIPOS>MOLECULE
mol_data/opt/m06hf/geoms/mol2/12ad13ei-4da-13hh.out
 46 49 0 0 0
SMALL
GASTEIGER

@<TRIPOS>ATOM
      1 C           0.2278    1.8116   -0.8413 C.ar    1  LIG1        0.0939
      2 C           1.5481    1.7949   -1.1167 C.ar    1  LIG1       -0.0058
      3 C           2.0130    3.1400   -0.8784 C.ar    1  LIG1        0.0988
      4 C           0.9264    3.8574   -0.4596 C.ar    1  LIG1        0.1693
      5 O          -0.1533    3.0497   -0.4440 O.2     1  LIG1       -0.4601
      6 H          -0.5435    1.0634   -0.8743 H       1  LIG1        0.1030
      7 H           2.1431    0.9662   -1.4577 H       1  LIG1        0.0662
      8 N           4.4152    3.9279   -1.3912 N.1     1  LIG1       -0.1907
      9 C           3.3415    3.6096   -1.1397 C.1     1  LIG1        0.1030
     10 C           0.6845    5.2355   -0.0696 C.ar    1  LIG1        0.0996
     11 C           1.5035    6.2124    0.4763 C.ar    1  LIG1        0.0565
     12 C           0.7125    7.3868    0.6584 C.ar    1  LIG1       -0.0091
     13 C          -0.5601    7.0700    0.2251 C.ar    1  LIG1        0.0524
     14 N          -0.5602    5.7681   -0.1969 N.ar    1  LIG1       -0.3505
     15 H          -1.3414    5.2956   -0.6264 H       1  LIG1        0.1660
     16 C           2.8700    6.0565    0.8701 C.1     1  LIG1       -0.0672
     17 C           4.0149    5.9294    1.2138 C.1     1  LIG1       -0.1138
     18 H           5.0363    5.7953    1.4866 H       1  LIG1        0.1232
     19 C           1.2025    8.6740    1.2671 C.3     1  LIG1       -0.0365
     20 H           0.3653    9.2538    1.6570 H       1  LIG1        0.0279
     21 H           1.7213    9.2730    0.5174 H       1  LIG1        0.0279
     22 H           1.8921    8.4470    2.0802 H       1  LIG1        0.0279
     23 C          -1.9025    9.1264   -0.3451 C.ar    1  LIG1        0.0615
     24 C          -3.0909    9.8528   -0.3299 C.ar    1  LIG1       -0.0345
     25 C          -1.8145    7.8479    0.2266 C.ar    1  LIG1        0.0160
     26 C          -4.2429    9.2992    0.2388 C.ar    1  LIG1        0.0014
     27 H          -3.1302   10.8467   -0.7604 H       1  LIG1        0.0637
     28 C          -2.9722    7.3082    0.7925 C.ar    1  LIG1       -0.0508
     29 C          -4.1689    8.0123    0.7870 C.ar    1  LIG1       -0.0519
     30 H          -2.9225    6.3280    1.2507 H       1  LIG1        0.0625
     31 N           0.1472   10.2078   -1.5192 N.1     1  LIG1       -0.1908
     32 C          -0.7462    9.7150   -0.9940 C.1     1  LIG1        0.0998
     33 H          -5.0571    7.5505    1.2001 H       1  LIG1        0.0624
     34 C          -5.4845   10.0767    0.2496 C.ar    1  LIG1        0.0693
     35 C          -5.9223   11.0611   -0.6134 C.ar    1  LIG1        0.0711
     36 C          -7.1937   11.5041   -0.1488 C.ar    1  LIG1        0.0637
     37 C          -7.4885   10.7782    0.9850 C.ar    1  LIG1        0.0249
     38 N          -6.4684    9.9078    1.2018 N.ar    1  LIG1       -0.3575
     39 H          -6.3696    9.3299    2.0198 H       1  LIG1        0.1654
     40 H          -8.3435   10.8222    1.6382 H       1  LIG1        0.0826
     41 N          -5.2753   11.5864   -1.7445 N.pl3   1  LIG1       -0.3549
     42 H          -4.9630   10.8662   -2.3880 H       1  LIG1        0.1424
     43 H          -5.9130   12.2254   -2.2128 H       1  LIG1        0.1424
     44 N          -7.9353   12.5098   -0.8345 N.pl3   1  LIG1       -0.3554
     45 H          -8.8867   12.2192   -1.0286 H       1  LIG1        0.1424
     46 H          -7.9552   13.3851   -0.3219 H       1  LIG1        0.1424
@<TRIPOS>BOND
     1    42    41    1
     2    43    41    1
     3    41    35    1
     4    31    32    3
     5     7     2    1
     6     8     9    3
     7     9     3    1
     8     2     3   ar
     9     2     1   ar
    10    45    44    1
    11    32    23    1
    12     3     4   ar
    13     6     1    1
    14     1     5   ar
    15    44    46    1
    16    44    36    1
    17    27    24    1
    18    15    14    1
    19    35    36   ar
    20    35    34   ar
    21     4     5   ar
    22     4    10    1
    23    23    24   ar
    24    23    25   ar
    25    24    26   ar
    26    14    10   ar
    27    14    13   ar
    28    36    37   ar
    29    10    11   ar
    30    13    25    1
    31    13    12   ar
    32    25    28   ar
    33    26    34    1
    34    26    29   ar
    35    34    38   ar
    36    11    12   ar
    37    11    16    1
    38    21    19    1
    39    12    19    1
    40    29    28   ar
    41    29    33    1
    42    28    30    1
    43    16    17    3
    44    37    38   ar
    45    37    40    1
    46    38    39    1
    47    17    18    1
    48    19    20    1
    49    19    22    1
