@<TRIPOS>MOLECULE
mol_data/opt/m06hf/geoms/mol2/12ad13fi13ih-6ei.out
 49 52 0 0 0
SMALL
GASTEIGER

@<TRIPOS>ATOM
      1 C           0.6017    1.8214   -0.6889 C.ar    1  LIG1        0.0939
      2 C           1.9483    1.8909   -0.6885 C.ar    1  LIG1       -0.0058
      3 C           2.2570    3.2719   -0.4086 C.ar    1  LIG1        0.0989
      4 C           1.0628    3.9222   -0.2435 C.ar    1  LIG1        0.1717
      5 O           0.0618    3.0400   -0.4176 O.2     1  LIG1       -0.4600
      6 H          -0.0939    1.0192   -0.8552 H       1  LIG1        0.1030
      7 H           2.6503    1.0962   -0.8702 H       1  LIG1        0.0662
      8 N           4.5293    4.4869   -0.3664 N.1     1  LIG1       -0.1907
      9 C           3.5297    3.9179   -0.3839 C.1     1  LIG1        0.1030
     10 C           0.7047    5.2890    0.0513 C.ar    1  LIG1        0.1261
     11 C           1.3848    6.3183    0.6908 C.ar    1  LIG1        0.1486
     12 C           0.5264    7.4458    0.7478 C.ar    1  LIG1        0.0184
     13 C          -0.6528    7.0683    0.1311 C.ar    1  LIG1        0.0702
     14 N          -0.5384    5.7730   -0.2756 N.ar    1  LIG1       -0.3474
     15 H          -1.2128    5.2885   -0.8484 H       1  LIG1        0.1662
     16 O           2.5951    6.2980    1.3030 O.3     1  LIG1       -0.5043
     17 H           3.2781    5.8783    0.7641 H       1  LIG1        0.2922
     18 C           0.8410    8.7489    1.4334 C.3     1  LIG1       -0.0342
     19 H          -0.0774    9.3182    1.5796 H       1  LIG1        0.0279
     20 H           1.5387    9.3438    0.8414 H       1  LIG1        0.0279
     21 H           1.3005    8.5508    2.4014 H       1  LIG1        0.0279
     22 C          -1.8984    7.8008   -0.0963 C.ar    1  LIG1        0.0684
     23 C          -2.1330    9.0506   -0.6409 C.ar    1  LIG1       -0.0025
     24 C          -3.5450    9.2040   -0.6900 C.ar    1  LIG1        0.0539
     25 C          -4.1243    8.0472   -0.1822 C.ar    1  LIG1        0.0708
     26 N          -3.0965    7.2113    0.1587 N.ar    1  LIG1       -0.3513
     27 H          -3.2177    6.3093    0.5953 H       1  LIG1        0.1660
     28 C          -1.1016   10.0183   -1.1617 C.3     1  LIG1       -0.0359
     29 H          -0.9709   10.8698   -0.4900 H       1  LIG1        0.0279
     30 H          -1.3958   10.3944   -2.1442 H       1  LIG1        0.0279
     31 H          -0.1424    9.5090   -1.2621 H       1  LIG1        0.0279
     32 N          -4.2468   10.3340   -1.1845 N.pl3   1  LIG1       -0.3561
     33 H          -3.6156   11.1077   -1.3583 H       1  LIG1        0.1424
     34 H          -4.7506   10.1205   -2.0409 H       1  LIG1        0.1424
     35 C          -6.0367    6.4019    0.1517 C.ar    1  LIG1        0.1223
     36 C          -5.5425    7.7129    0.0168 C.ar    1  LIG1        0.0342
     37 C          -6.4831    8.7485    0.1021 C.ar    1  LIG1       -0.0456
     38 C          -7.8275    8.4689    0.2972 C.ar    1  LIG1       -0.0316
     39 C          -8.1913    7.1234    0.4160 C.ar    1  LIG1        0.0319
     40 N          -7.3272    6.1232    0.3496 N.ar    1  LIG1       -0.2458
     41 H          -6.1328    9.7717    0.0149 H       1  LIG1        0.0628
     42 H          -9.2281    6.8493    0.5770 H       1  LIG1        0.0832
     43 C          -5.1727    5.2324    0.0872 C.1     1  LIG1       -0.0491
     44 C          -4.4761    4.2520    0.0519 C.1     1  LIG1       -0.1124
     45 H          -3.8781    3.3698    0.0189 H       1  LIG1        0.1232
     46 C          -8.8654    9.5703    0.3708 C.3     1  LIG1       -0.0383
     47 H          -9.7535    9.2245    0.8991 H       1  LIG1        0.0278
     48 H          -9.1582    9.8775   -0.6348 H       1  LIG1        0.0278
     49 H          -8.4602   10.4371    0.8920 H       1  LIG1        0.0278
@<TRIPOS>BOND
     1    30    28    1
     2    34    32    1
     3    33    32    1
     4    31    28    1
     5    32    24    1
     6    28    23    1
     7    28    29    1
     8     7     2    1
     9     6     1    1
    10    15    14    1
    11    24    23   ar
    12    24    25   ar
    13     1     2   ar
    14     1     5   ar
    15     2     3   ar
    16    23    22   ar
    17    48    46    1
    18     5     4   ar
    19     3     9    1
    20     3     4   ar
    21     9     8    3
    22    14    10   ar
    23    14    13   ar
    24     4    10    1
    25    25    36    1
    26    25    26   ar
    27    22    13    1
    28    22    26   ar
    29    41    37    1
    30    36    37   ar
    31    36    35   ar
    32    45    44    1
    33    10    11   ar
    34    44    43    3
    35    43    35    1
    36    37    38   ar
    37    13    12   ar
    38    35    40   ar
    39    26    27    1
    40    38    46    1
    41    38    39   ar
    42    40    39   ar
    43    46    49    1
    44    46    47    1
    45    39    42    1
    46    11    12   ar
    47    11    16    1
    48    12    18    1
    49    17    16    1
    50    20    18    1
    51    18    19    1
    52    18    21    1
