@<TRIPOS>MOLECULE
mol_data/opt/m06hf/geoms/mol2/12ad12il4aa-4ia-.out
 47 50 0 0 0
SMALL
GASTEIGER

@<TRIPOS>ATOM
      1 C           0.6349    1.7545    1.4094 C.ar    1  LIG1        0.0940
      2 C           1.8124    1.6613    0.7536 C.ar    1  LIG1       -0.0057
      3 C           2.0494    2.9759    0.2149 C.ar    1  LIG1        0.1004
      4 C           0.9949    3.7543    0.6088 C.ar    1  LIG1        0.1873
      5 O           0.1426    3.0112    1.3285 O.2     1  LIG1       -0.4585
      6 H           0.0422    1.0467    1.9602 H       1  LIG1        0.1030
      7 H           2.4386    0.7946    0.6375 H       1  LIG1        0.0662
      8 N           3.9893    3.7111   -1.3208 N.1     1  LIG1       -0.1907
      9 C           3.1261    3.3880   -0.6357 C.1     1  LIG1        0.1031
     10 C           0.6722    5.1543    0.3910 C.ar    1  LIG1        0.1784
     11 C           1.4520    6.2651    0.2705 C.ar    1  LIG1        0.0408
     12 C           0.5098    7.3323    0.0747 C.ar    1  LIG1        0.1692
     13 C          -0.7464    6.7971    0.1012 C.ar    1  LIG1        0.1775
     14 O          -0.6415    5.4643    0.2938 O.2     1  LIG1       -0.4476
     15 C           2.9433    6.4354    0.3898 C.3     1  LIG1       -0.0325
     16 H           3.1436    7.4493    0.7363 H       1  LIG1        0.0280
     17 H           3.4366    6.2764   -0.5697 H       1  LIG1        0.0280
     18 H           3.3506    5.7203    1.1049 H       1  LIG1        0.0280
     19 O           0.8399    8.6434   -0.0898 O.3     1  LIG1       -0.4910
     20 C           1.1318    8.9747   -1.4502 C.3     1  LIG1        0.0790
     21 H           1.4073   10.0264   -1.4561 H       1  LIG1        0.0660
     22 H           1.9606    8.3658   -1.8165 H       1  LIG1        0.0660
     23 H           0.2485    8.8084   -2.0699 H       1  LIG1        0.0660
     24 C          -2.2523    8.7660   -0.0604 C.ar    1  LIG1       -0.0504
     25 C          -3.5242    9.3068   -0.1934 C.ar    1  LIG1       -0.0534
     26 C          -2.0872    7.3767   -0.0307 C.ar    1  LIG1        0.0210
     27 C          -4.6494    8.4816   -0.2886 C.ar    1  LIG1       -0.0176
     28 H          -3.6494   10.3815   -0.2360 H       1  LIG1        0.0624
     29 C          -3.2035    6.5428   -0.1267 C.ar    1  LIG1       -0.0504
     30 C          -4.4717    7.0957   -0.2530 C.ar    1  LIG1       -0.0534
     31 H          -3.0718    5.4694   -0.0947 H       1  LIG1        0.0625
     32 H          -1.3838    9.4058    0.0307 H       1  LIG1        0.0625
     33 H          -5.3400    6.4513   -0.3136 H       1  LIG1        0.0624
     34 C          -6.5609    9.9532    0.4860 C.ar    1  LIG1       -0.0427
     35 C          -7.8521   10.4403    0.2714 C.ar    1  LIG1       -0.0583
     36 C          -6.0217    9.0550   -0.4486 C.ar    1  LIG1       -0.0150
     37 C          -8.6029   10.0534   -0.8337 C.ar    1  LIG1       -0.0615
     38 H          -8.2780   11.1274    0.9934 H       1  LIG1        0.0620
     39 C          -6.7835    8.6598   -1.5526 C.ar    1  LIG1       -0.0538
     40 C          -8.0675    9.1538   -1.7505 C.ar    1  LIG1       -0.0612
     41 H          -6.3491    7.9683   -2.2645 H       1  LIG1        0.0624
     42 H          -9.6017   10.4457   -0.9734 H       1  LIG1        0.0618
     43 C          -5.7993   10.3821    1.7300 C.3     1  LIG1       -0.0391
     44 H          -6.5046   10.6508    2.5163 H       1  LIG1        0.0278
     45 H          -5.1731   11.2529    1.5240 H       1  LIG1        0.0278
     46 H          -5.1574    9.5777    2.0878 H       1  LIG1        0.0278
     47 H          -8.6419    8.8412   -2.6127 H       1  LIG1        0.0618
@<TRIPOS>BOND
     1    47    40    1
     2    41    39    1
     3    23    20    1
     4    22    20    1
     5    40    39   ar
     6    40    37   ar
     7    39    36   ar
     8    21    20    1
     9    20    19    1
    10     8     9    3
    11    42    37    1
    12    37    35   ar
    13     9     3    1
    14    17    15    1
    15    36    27    1
    16    36    34   ar
    17    33    30    1
    18    27    30   ar
    19    27    25   ar
    20    30    29   ar
    21    28    25    1
    22    25    24   ar
    23    29    31    1
    24    29    26   ar
    25    19    12    1
    26    24    26   ar
    27    24    32    1
    28    26    13    1
    29    12    13   ar
    30    12    11   ar
    31    13    14   ar
    32     3     4   ar
    33     3     2   ar
    34    11    15    1
    35    11    10   ar
    36    35    34   ar
    37    35    38    1
    38    14    10   ar
    39    15    16    1
    40    15    18    1
    41    10     4    1
    42    34    43    1
    43     4     5   ar
    44     7     2    1
    45     2     1   ar
    46     5     1   ar
    47     1     6    1
    48    45    43    1
    49    43    46    1
    50    43    44    1
