@<TRIPOS>MOLECULE
mol_data/opt/m06hf/geoms/mol2/12ad6ia-13lf6ie-12ae12fi-13ea4ih-.out
 94 101 0 0 0
SMALL
GASTEIGER

@<TRIPOS>ATOM
      1 C          -0.3823    0.9267   -0.3064 C.ar    1  LIG1        0.0939
      2 C           0.9094    0.9497    0.0860 C.ar    1  LIG1       -0.0058
      3 C           1.2363    2.3452    0.2218 C.ar    1  LIG1        0.0974
      4 C           0.1117    3.0544   -0.1060 C.ar    1  LIG1        0.1538
      5 O          -0.8629    2.1858   -0.4245 O.2     1  LIG1       -0.4615
      6 H          -1.0691    0.1315   -0.5340 H       1  LIG1        0.1030
      7 H           1.5611    0.1137    0.2685 H       1  LIG1        0.0662
      8 N           3.5029    3.3405    0.9556 N.1     1  LIG1       -0.1907
      9 C           2.4917    2.8991    0.6375 C.1     1  LIG1        0.1030
     10 C          -1.4170    5.0392    0.1362 C.ar    1  LIG1        0.0496
     11 C          -0.1574    4.4973   -0.1784 C.ar    1  LIG1        0.0396
     12 C           0.8725    5.3664   -0.5497 C.ar    1  LIG1       -0.0473
     13 C           0.6387    6.7285   -0.5861 C.ar    1  LIG1       -0.0334
     14 C          -0.6465    7.1791   -0.2669 C.ar    1  LIG1        0.0911
     15 N          -1.6436    6.3492    0.0643 N.ar    1  LIG1       -0.2496
     16 H           1.8482    4.9735   -0.8066 H       1  LIG1        0.0626
     17 C          -2.5711    4.1837    0.6261 C.3     1  LIG1       -0.0216
     18 H          -2.2244    3.4857    1.3890 H       1  LIG1        0.0293
     19 H          -2.9981    3.6002   -0.1919 H       1  LIG1        0.0293
     20 H          -3.3241    4.8477    1.0449 H       1  LIG1        0.0293
     21 H           1.4048    7.4417   -0.8538 H       1  LIG1        0.0640
     22 C          -0.9584    8.6102   -0.2478 C.ar    1  LIG1        0.1114
     23 C          -0.1235    9.7197   -0.2858 C.ar    1  LIG1        0.1888
     24 C          -0.9483   10.8616   -0.1706 C.ar    1  LIG1        0.1851
     25 C          -2.2614   10.4207   -0.0784 C.ar    1  LIG1        0.0945
     26 N          -2.2346    9.0596   -0.1168 N.ar    1  LIG1       -0.3470
     27 H          -3.0602    8.4652   -0.2032 H       1  LIG1        0.1662
     28 O           1.2309    9.6887   -0.4169 O.3     1  LIG1       -0.4895
     29 C           1.9314   10.2930    0.6717 C.3     1  LIG1        0.0791
     30 H           2.9897   10.1857    0.4479 H       1  LIG1        0.0660
     31 H           1.6651   11.3473    0.7433 H       1  LIG1        0.0660
     32 H           1.6872    9.7747    1.6012 H       1  LIG1        0.0660
     33 O          -0.4996   12.1584   -0.1654 O.3     1  LIG1       -0.5019
     34 H          -0.9413   12.6464    0.5409 H       1  LIG1        0.2924
     35 C          -4.6388   10.7894    0.7095 C.ar    1  LIG1        0.0483
     36 C          -3.4933   11.2184    0.0035 C.ar    1  LIG1        0.0242
     37 C          -3.5493   12.4582   -0.6321 C.ar    1  LIG1       -0.0332
     38 C          -4.7182   13.2202   -0.5942 C.ar    1  LIG1        0.0543
     39 C          -5.8288   12.6703    0.0634 C.ar    1  LIG1        0.1216
     40 N          -5.7611   11.4980    0.6953 N.ar    1  LIG1       -0.2469
     41 H          -2.6893   12.8260   -1.1784 H       1  LIG1        0.0637
     42 C          -4.6759    9.5273    1.5488 C.3     1  LIG1       -0.0217
     43 H          -3.7099    9.3469    2.0198 H       1  LIG1        0.0293
     44 H          -4.9337    8.6626    0.9312 H       1  LIG1        0.0293
     45 H          -5.4483    9.6599    2.3031 H       1  LIG1        0.0293
     46 C          -4.7634   14.4973   -1.2595 C.1     1  LIG1       -0.0674
     47 C          -4.7584   15.5595   -1.8230 C.1     1  LIG1       -0.1138
     48 H          -4.7575   16.4994   -2.3265 H       1  LIG1        0.1232
     49 C          -7.1642   13.2979    0.0714 C.ar    1  LIG1        0.1564
     50 C          -7.6789   14.5515   -0.0624 C.ar    1  LIG1        0.0019
     51 C          -9.1116   14.4070    0.0190 C.ar    1  LIG1        0.0742
     52 C          -9.3378   13.0663    0.1941 C.ar    1  LIG1        0.1896
     53 O          -8.1690   12.4135    0.2370 O.2     1  LIG1       -0.4488
     54 H          -7.1351   15.4674   -0.2088 H       1  LIG1        0.0668
     55 C         -10.0995   15.4336   -0.1054 C.1     1  LIG1       -0.0657
     56 C         -10.9216   16.3016   -0.2191 C.1     1  LIG1       -0.1138
     57 H         -11.6554   17.0667   -0.3192 H       1  LIG1        0.1232
     58 C         -10.4777   12.1709    0.2608 C.ar    1  LIG1        0.2132
     59 C         -11.8096   12.2094    0.5474 C.ar    1  LIG1        0.1694
     60 C         -12.3120   10.8568    0.4585 C.ar    1  LIG1        0.0390
     61 C         -11.2297   10.1059    0.1041 C.ar    1  LIG1        0.1596
     62 O         -10.1404   10.8875   -0.0134 O.2     1  LIG1       -0.4461
     63 O         -12.5100   13.3078    0.9072 O.3     1  LIG1       -0.5029
     64 H         -13.4534   13.1172    0.8812 H       1  LIG1        0.2923
     65 C         -13.7219   10.4321    0.7749 C.3     1  LIG1       -0.0325
     66 H         -13.7621    9.3556    0.9228 H       1  LIG1        0.0280
     67 H         -14.4011   10.6880   -0.0410 H       1  LIG1        0.0280
     68 H         -14.0583   10.9246    1.6903 H       1  LIG1        0.0280
     69 C         -10.8896    8.7099   -0.1567 C.ar    1  LIG1        0.0985
     70 C         -11.5708    7.5628   -0.5404 C.ar    1  LIG1        0.0535
     71 C         -10.5916    6.5436   -0.7303 C.ar    1  LIG1       -0.0203
     72 C          -9.3523    7.0974   -0.4719 C.ar    1  LIG1        0.0485
     73 N          -9.5671    8.3983   -0.1206 N.ar    1  LIG1       -0.3508
     74 H          -8.8564    9.0607    0.1624 H       1  LIG1        0.1660
     75 C         -12.9774    7.4345   -0.7800 C.1     1  LIG1       -0.0674
     76 C         -14.1538    7.3046   -0.9946 C.1     1  LIG1       -0.1138
     77 H         -15.1936    7.1874   -1.1941 H       1  LIG1        0.1232
     78 H         -10.7953    5.5444   -1.0728 H       1  LIG1        0.0651
     79 C          -7.6167    5.2649   -0.3281 C.ar    1  LIG1       -0.0412
     80 C          -6.2781    4.8969   -0.4906 C.ar    1  LIG1       -0.0565
     81 C          -7.9641    6.5954   -0.6021 C.ar    1  LIG1        0.0030
     82 C          -5.3045    5.7974   -0.8962 C.ar    1  LIG1       -0.0408
     83 H          -5.9889    3.8742   -0.2765 H       1  LIG1        0.0621
     84 C          -6.9837    7.5090   -1.0174 C.ar    1  LIG1       -0.0317
     85 C          -5.6556    7.1220   -1.1608 C.ar    1  LIG1        0.0252
     86 H          -7.2640    8.5268   -1.2667 H       1  LIG1        0.0643
     87 H          -4.2687    5.4979   -0.9958 H       1  LIG1        0.0636
     88 C          -8.6273    4.2351    0.1410 C.3     1  LIG1       -0.0391
     89 H          -8.1143    3.4299    0.6663 H       1  LIG1        0.0278
     90 H          -9.1610    3.8008   -0.7077 H       1  LIG1        0.0278
     91 H          -9.3583    4.6894    0.8103 H       1  LIG1        0.0278
     92 N          -4.6486    8.0515   -1.5093 N.pl3   1  LIG1       -0.3579
     93 H          -3.9540    7.6616   -2.1390 H       1  LIG1        0.1423
     94 H          -5.0105    8.9215   -1.8848 H       1  LIG1        0.1423
@<TRIPOS>BOND
     1    48    47    1
     2    93    92    1
     3    94    92    1
     4    47    46    3
     5    92    85    1
     6    86    84    1
     7    46    38    1
     8    77    76    1
     9    41    37    1
    10    85    84   ar
    11    85    82   ar
    12    78    71    1
    13    84    81   ar
    14    87    82    1
    15    76    75    3
    16    82    80   ar
    17    21    13    1
    18    16    12    1
    19    75    70    1
    20    71    70   ar
    21    71    72   ar
    22    90    88    1
    23    37    38   ar
    24    37    36   ar
    25    81    72    1
    26    81    79   ar
    27    38    39   ar
    28    13    12   ar
    29    13    14   ar
    30    12    11   ar
    31    70    69   ar
    32     6     1    1
    33    80    79   ar
    34    80    83    1
    35    72    73   ar
    36     5     1   ar
    37     5     4   ar
    38    28    23    1
    39    28    29    1
    40    79    88    1
    41    57    56    1
    42     1     2   ar
    43    23    22   ar
    44    23    24   ar
    45    14    22    1
    46    14    15   ar
    47    22    26   ar
    48    56    55    3
    49    54    50    1
    50    27    26    1
    51    19    17    1
    52    11     4    1
    53    11    10   ar
    54    24    33    1
    55    24    25   ar
    56    33    34    1
    57    69    73   ar
    58    69    61    1
    59    73    74    1
    60    26    25   ar
    61     4     3   ar
    62    55    51    1
    63    25    36    1
    64    50    51   ar
    65    50    49   ar
    66    67    65    1
    67    62    61   ar
    68    62    58   ar
    69    36    35   ar
    70    51    52   ar
    71    39    49    1
    72    39    40   ar
    73    15    10   ar
    74    49    53   ar
    75     2     3   ar
    76     2     7    1
    77    61    60   ar
    78    10    17    1
    79    88    89    1
    80    88    91    1
    81    52    53   ar
    82    52    58    1
    83     3     9    1
    84    58    59   ar
    85    30    29    1
    86    60    59   ar
    87    60    65    1
    88    59    63    1
    89    17    20    1
    90    17    18    1
    91     9     8    3
    92    29    31    1
    93    29    32    1
    94    40    35   ar
    95    35    42    1
    96    65    66    1
    97    65    68    1
    98    64    63    1
    99    44    42    1
   100    42    43    1
   101    42    45    1
