@<TRIPOS>MOLECULE
mol_data/opt/m06hf/geoms/mol2/12ad6dh4ei-13id-6ff-13dd12el12df-.out
 92 99 0 0 0
SMALL
GASTEIGER

@<TRIPOS>ATOM
      1 C           2.4682    2.0736    1.7797 C.ar    1  LIG1        0.0939
      2 C           1.6914    1.4754    0.8473 C.ar    1  LIG1       -0.0058
      3 C           0.9190    2.5390    0.2639 C.ar    1  LIG1        0.0974
      4 C           1.2978    3.6933    0.8965 C.ar    1  LIG1        0.1549
      5 O           2.2348    3.4016    1.8045 O.2     1  LIG1       -0.4615
      6 H           3.2040    1.7074    2.4729 H       1  LIG1        0.1030
      7 H           1.6450    0.4313    0.5930 H       1  LIG1        0.0662
      8 N          -0.8447    2.3685   -1.6139 N.1     1  LIG1       -0.1907
      9 C          -0.0680    2.4325   -0.7707 C.1     1  LIG1        0.1030
     10 C           0.8786    6.0012    1.8108 C.ar    1  LIG1        0.1515
     11 C           0.8707    5.0918    0.7430 C.ar    1  LIG1        0.0561
     12 C           0.4212    5.5437   -0.4903 C.ar    1  LIG1       -0.0255
     13 C          -0.0084    6.8667   -0.6440 C.ar    1  LIG1        0.0517
     14 C           0.1043    7.7151    0.4876 C.ar    1  LIG1        0.0942
     15 N           0.5080    7.2676    1.6649 N.ar    1  LIG1       -0.2337
     16 H           0.3862    4.8689   -1.3366 H       1  LIG1        0.0644
     17 N           1.5203    5.3017    4.2331 N.1     1  LIG1       -0.1893
     18 C           1.2508    5.6068    3.1609 C.1     1  LIG1        0.1198
     19 N          -0.5588    7.2936   -1.8148 N.pl3   1  LIG1       -0.3563
     20 H          -0.4514    6.7137   -2.6315 H       1  LIG1        0.1424
     21 H          -0.6286    8.2845   -1.9839 H       1  LIG1        0.1424
     22 C           0.2583   10.0753   -0.4434 C.ar    1  LIG1        0.0345
     23 C          -0.1833   11.4016   -0.4299 C.ar    1  LIG1       -0.0363
     24 C          -0.3138    9.1503    0.4420 C.ar    1  LIG1        0.0178
     25 C          -1.1590   11.8205    0.4699 C.ar    1  LIG1        0.0027
     26 H           0.2435   12.1098   -1.1285 H       1  LIG1        0.0637
     27 C          -1.2717    9.5894    1.3547 C.ar    1  LIG1       -0.0478
     28 C          -1.7053   10.9119    1.3948 C.ar    1  LIG1       -0.0406
     29 H          -1.6634    8.8716    2.0654 H       1  LIG1        0.0627
     30 C           1.3154    9.6980   -1.3545 C.1     1  LIG1       -0.0690
     31 C           2.1922    9.4025   -2.1220 C.1     1  LIG1       -0.1139
     32 H           2.9790    9.1413   -2.7925 H       1  LIG1        0.1232
     33 C          -2.7130   11.3498    2.4437 C.3     1  LIG1       -0.0391
     34 H          -2.7248   10.6316    3.2618 H       1  LIG1        0.0278
     35 H          -3.7226   11.4094    2.0291 H       1  LIG1        0.0278
     36 H          -2.4476   12.3329    2.8343 H       1  LIG1        0.0278
     37 C          -1.5805   13.2395    0.4498 C.ar    1  LIG1        0.0514
     38 C          -0.8287   14.3946    0.5223 C.ar    1  LIG1       -0.0072
     39 C          -1.7624   15.4684    0.4755 C.ar    1  LIG1        0.0806
     40 C          -3.0461   14.9399    0.3740 C.ar    1  LIG1        0.0700
     41 N          -2.8980   13.5925    0.3640 N.ar    1  LIG1       -0.3528
     42 H          -3.6780   12.9535    0.2942 H       1  LIG1        0.1660
     43 C           0.6663   14.5245    0.6646 C.3     1  LIG1       -0.0365
     44 H           0.9027   15.3055    1.3872 H       1  LIG1        0.0279
     45 H           1.1224   14.7939   -0.2896 H       1  LIG1        0.0279
     46 H           1.0919   13.5821    1.0073 H       1  LIG1        0.0279
     47 N          -1.1214   17.9648    0.6328 N.1     1  LIG1       -0.1908
     48 C          -1.4120   16.8549    0.5641 C.1     1  LIG1        0.1016
     49 C          -5.5681   14.9080    0.4914 C.ar    1  LIG1        0.2225
     50 C          -4.3544   15.6046    0.2938 C.ar    1  LIG1        0.0644
     51 C          -4.4789   16.9574    0.0058 C.ar    1  LIG1       -0.0037
     52 C          -5.7323   17.5725   -0.0326 C.ar    1  LIG1        0.1451
     53 C          -6.8520   16.7902    0.2331 C.ar    1  LIG1        0.1334
     54 N          -6.7483   15.4720    0.4635 N.ar    1  LIG1       -0.2072
     55 H          -3.6133   17.5700   -0.2116 H       1  LIG1        0.0663
     56 O          -5.5360   13.5697    0.7188 O.3     1  LIG1       -0.4919
     57 H          -6.4449   13.2750    0.8652 H       1  LIG1        0.2937
     58 O          -5.8306   18.8647   -0.4527 O.3     1  LIG1       -0.5045
     59 H          -5.9370   19.4896    0.2797 H       1  LIG1        0.2922
     60 C          -8.2343   17.3026    0.2243 C.ar    1  LIG1        0.0880
     61 C          -8.8081   18.5266    0.5245 C.ar    1  LIG1        0.0966
     62 C         -10.2197   18.3892    0.3722 C.ar    1  LIG1        0.0980
     63 C         -10.4548   17.0760    0.0036 C.ar    1  LIG1        0.1028
     64 N          -9.2483   16.4565   -0.0777 N.ar    1  LIG1       -0.3484
     65 H          -9.1032   15.4790   -0.3008 H       1  LIG1        0.1661
     66 N          -7.5252   20.5798    1.4119 N.1     1  LIG1       -0.1908
     67 C          -8.1164   19.6832    1.0040 C.1     1  LIG1        0.1027
     68 N         -11.9237   20.3085    0.6192 N.1     1  LIG1       -0.1908
     69 C         -11.1781   19.4429    0.5153 C.1     1  LIG1        0.1027
     70 C         -11.6730   16.3357   -0.2825 C.ar    1  LIG1        0.1722
     71 C         -12.9550   16.4194    0.1838 C.ar    1  LIG1        0.1142
     72 C         -13.6616   15.3351   -0.4632 C.ar    1  LIG1        0.1849
     73 C         -12.7503   14.7033   -1.2545 C.ar    1  LIG1        0.2146
     74 O         -11.5391   15.3029   -1.1373 O.2     1  LIG1       -0.4451
     75 C         -13.4537   17.2967    1.1935 C.1     1  LIG1       -0.0621
     76 C         -13.8584   18.0380    2.0469 C.1     1  LIG1       -0.1137
     77 H         -14.1994   18.7131    2.7983 H       1  LIG1        0.1232
     78 O         -14.9301   14.9467   -0.2791 O.3     1  LIG1       -0.4901
     79 C         -15.9301   15.9382   -0.5696 C.3     1  LIG1        0.0790
     80 H         -16.8825   15.4343   -0.4416 H       1  LIG1        0.0660
     81 H         -15.8327   16.7741    0.1220 H       1  LIG1        0.0660
     82 H         -15.8234   16.2702   -1.6023 H       1  LIG1        0.0660
     83 C         -12.8647   13.5482   -2.1212 C.ar    1  LIG1        0.1944
     84 C         -13.9348   12.9781   -2.7535 C.ar    1  LIG1        0.1419
     85 C         -13.4082   11.8351   -3.4539 C.ar    1  LIG1        0.1729
     86 C         -12.0788   11.8107   -3.1969 C.ar    1  LIG1        0.1354
     87 O         -11.7535   12.8534   -2.3846 O.2     1  LIG1       -0.4546
     88 H         -11.2801   11.1608   -3.5031 H       1  LIG1        0.1068
     89 N         -16.3732   13.8039   -2.8669 N.1     1  LIG1       -0.1906
     90 C         -15.2870   13.4410   -2.7957 C.1     1  LIG1        0.1068
     91 O         -14.1913   11.0272   -4.1963 O.3     1  LIG1       -0.5028
     92 H         -13.6718   10.3499   -4.6418 H       1  LIG1        0.2923
@<TRIPOS>BOND
     1    92    91    1
     2    91    85    1
     3    88    86    1
     4    85    86   ar
     5    85    84   ar
     6    86    87   ar
     7    89    90    3
     8    90    84    1
     9    32    31    1
    10    84    83   ar
    11    20    19    1
    12    87    83   ar
    13    31    30    3
    14    83    73    1
    15    21    19    1
    16    19    13    1
    17     8     9    3
    18    82    79    1
    19    30    22    1
    20    16    12    1
    21    73    74   ar
    22    73    72   ar
    23    74    70   ar
    24    26    23    1
    25     9     3    1
    26    13    12   ar
    27    13    14   ar
    28    79    80    1
    29    79    78    1
    30    79    81    1
    31    12    11   ar
    32    72    78    1
    33    72    71   ar
    34    58    52    1
    35    58    59    1
    36    22    23   ar
    37    22    24   ar
    38    23    25   ar
    39    65    64    1
    40    45    43    1
    41    70    63    1
    42    70    71   ar
    43    55    51    1
    44    64    63   ar
    45    64    60   ar
    46    52    51   ar
    47    52    53   ar
    48    63    62   ar
    49    51    50   ar
    50    71    75    1
    51    60    53    1
    52    60    61   ar
    53    53    54   ar
    54     3     2   ar
    55     3     4   ar
    56    50    40    1
    57    50    49   ar
    58    42    41    1
    59    41    40   ar
    60    41    37   ar
    61    62    69    1
    62    62    61   ar
    63    40    39   ar
    64    24    14    1
    65    24    27   ar
    66    37    25    1
    67    37    38   ar
    68    54    49   ar
    69    25    28   ar
    70    39    38   ar
    71    39    48    1
    72    14    15   ar
    73    49    56    1
    74    69    68    3
    75    38    43    1
    76    61    67    1
    77    48    47    3
    78     7     2    1
    79    43    46    1
    80    43    44    1
    81    56    57    1
    82    11     4    1
    83    11    10   ar
    84     2     1   ar
    85     4     5   ar
    86    67    66    3
    87    75    76    3
    88    27    28   ar
    89    27    29    1
    90    28    33    1
    91    15    10   ar
    92     1     5   ar
    93     1     6    1
    94    10    18    1
    95    35    33    1
    96    76    77    1
    97    33    36    1
    98    33    34    1
    99    18    17    3
