@<TRIPOS>MOLECULE
mol_data/opt/m06hf/geoms/mol2/12ad6el-13ll12ai-.out
 51 54 0 0 0
SMALL
GASTEIGER

@<TRIPOS>ATOM
      1 C           0.1043    1.2912    0.0504 C.ar    1  LIG1        0.0939
      2 C           1.4002    1.3036   -0.3353 C.ar    1  LIG1       -0.0058
      3 C           1.7487    2.6956   -0.4259 C.ar    1  LIG1        0.0974
      4 C           0.6282    3.4092   -0.0847 C.ar    1  LIG1        0.1548
      5 O          -0.3563    2.5507    0.2034 O.2     1  LIG1       -0.4615
      6 H          -0.5959    0.5007    0.2503 H       1  LIG1        0.1030
      7 H           2.0393    0.4629   -0.5392 H       1  LIG1        0.0662
      8 N           4.0285    3.7145   -1.0846 N.1     1  LIG1       -0.1907
      9 C           3.0144    3.2518   -0.8065 C.1     1  LIG1        0.1030
     10 C          -0.8450    5.4580   -0.2169 C.ar    1  LIG1        0.1248
     11 C           0.3967    4.8558    0.0111 C.ar    1  LIG1        0.0558
     12 C           1.4810    5.6833    0.3270 C.ar    1  LIG1       -0.0044
     13 C           1.3144    7.0560    0.3675 C.ar    1  LIG1        0.1483
     14 C           0.0353    7.5829    0.0723 C.ar    1  LIG1        0.1337
     15 N          -0.9945    6.7839   -0.1751 N.ar    1  LIG1       -0.2324
     16 H           2.4400    5.2407    0.5557 H       1  LIG1        0.0663
     17 C          -2.0324    4.7004   -0.5539 C.1     1  LIG1       -0.0491
     18 C          -3.0296    4.1010   -0.8483 C.1     1  LIG1       -0.1124
     19 H          -3.9145    3.5699   -1.1123 H       1  LIG1        0.1232
     20 O           2.2836    7.9194    0.7046 O.3     1  LIG1       -0.4929
     21 C           3.6187    7.4382    0.7514 C.3     1  LIG1        0.0789
     22 H           4.2435    8.3188    0.8695 H       1  LIG1        0.0660
     23 H           3.7567    6.7695    1.6047 H       1  LIG1        0.0660
     24 H           3.8698    6.9205   -0.1767 H       1  LIG1        0.0660
     25 C          -0.2723    9.0179    0.0658 C.ar    1  LIG1        0.1151
     26 C           0.4523   10.1960   -0.0849 C.ar    1  LIG1        0.1892
     27 C          -0.4772   11.2641   -0.0364 C.ar    1  LIG1        0.1906
     28 C          -1.7382   10.7173    0.1098 C.ar    1  LIG1        0.1285
     29 N          -1.5901    9.3720    0.1668 N.ar    1  LIG1       -0.3446
     30 H          -2.3324    8.6870    0.2181 H       1  LIG1        0.1663
     31 O           1.7818   10.3656   -0.3187 O.3     1  LIG1       -0.4895
     32 C           2.4653   10.9470    0.7914 C.3     1  LIG1        0.0791
     33 H           3.4992   11.0783    0.4780 H       1  LIG1        0.0660
     34 H           2.0202   11.9126    1.0387 H       1  LIG1        0.0660
     35 H           2.4087   10.2714    1.6466 H       1  LIG1        0.0660
     36 O          -0.1841   12.5935   -0.1391 O.3     1  LIG1       -0.4894
     37 C           0.1697   12.9691   -1.4729 C.3     1  LIG1        0.0791
     38 H           0.4193   14.0274   -1.4389 H       1  LIG1        0.0660
     39 H           1.0287   12.3845   -1.8052 H       1  LIG1        0.0660
     40 H          -0.6792   12.8009   -2.1389 H       1  LIG1        0.0660
     41 C          -3.0257   11.3834    0.1864 C.ar    1  LIG1        0.1548
     42 C          -3.3794   12.6943    0.2226 C.ar    1  LIG1       -0.0114
     43 C          -4.8207   12.7157    0.2843 C.ar    1  LIG1       -0.0121
     44 C          -5.2021   11.4158    0.2804 C.ar    1  LIG1        0.0955
     45 O          -4.1242   10.5964    0.2205 O.2     1  LIG1       -0.4611
     46 H          -6.1653   10.9369    0.3161 H       1  LIG1        0.1032
     47 H          -2.6978   13.5282    0.2186 H       1  LIG1        0.0658
     48 C          -5.7087   13.9321    0.3462 C.3     1  LIG1       -0.0367
     49 H          -6.7565   13.6359    0.3891 H       1  LIG1        0.0278
     50 H          -5.5582   14.5566   -0.5349 H       1  LIG1        0.0278
     51 H          -5.4771   14.5239    1.2322 H       1  LIG1        0.0278
@<TRIPOS>BOND
     1    40    37    1
     2    39    37    1
     3    37    38    1
     4    37    36    1
     5    19    18    1
     6     8     9    3
     7    18    17    3
     8     9     3    1
     9    17    10    1
    10     7     2    1
    11    50    48    1
    12     3     2   ar
    13     3     4   ar
    14     2     1   ar
    15    31    26    1
    16    31    32    1
    17    10    15   ar
    18    10    11   ar
    19    24    21    1
    20    15    14   ar
    21    36    27    1
    22    26    27   ar
    23    26    25   ar
    24     4    11    1
    25     4     5   ar
    26    27    28   ar
    27    11    12   ar
    28     1     5   ar
    29     1     6    1
    30    25    14    1
    31    25    29   ar
    32    14    13   ar
    33    28    29   ar
    34    28    41    1
    35    29    30    1
    36    41    45   ar
    37    41    42   ar
    38    47    42    1
    39    45    44   ar
    40    42    43   ar
    41    44    43   ar
    42    44    46    1
    43    43    48    1
    44    12    13   ar
    45    12    16    1
    46    48    49    1
    47    48    51    1
    48    13    20    1
    49    33    32    1
    50    20    21    1
    51    21    22    1
    52    21    23    1
    53    32    34    1
    54    32    35    1
