@<TRIPOS>MOLECULE
mol_data/opt/m06hf/geoms/mol2/12ad4hf4ei4id6fd13af-4id-12ea.out
 95 102 0 0 0
SMALL
GASTEIGER

@<TRIPOS>ATOM
      1 C           0.3509    1.4555    1.0110 C.ar    1  LIG1        0.0939
      2 C           1.5477    1.2911    0.4084 C.ar    1  LIG1       -0.0058
      3 C           1.9486    2.6153    0.0076 C.ar    1  LIG1        0.0974
      4 C           0.9644    3.4782    0.4115 C.ar    1  LIG1        0.1539
      5 O          -0.0012    2.7613    1.0131 O.2     1  LIG1       -0.4615
      6 H          -0.3402    0.7742    1.4736 H       1  LIG1        0.1030
      7 H           2.0915    0.3769    0.2479 H       1  LIG1        0.0662
      8 N           4.0715    3.2767   -1.3020 N.1     1  LIG1       -0.1907
      9 C           3.1215    2.9690   -0.7333 C.1     1  LIG1        0.1030
     10 C           1.7157    5.8925    0.5161 C.ar    1  LIG1        0.0362
     11 C           1.3375    7.2389    0.4030 C.ar    1  LIG1       -0.0291
     12 C           0.7262    4.9256    0.2802 C.ar    1  LIG1        0.0426
     13 C           0.0479    7.6346    0.0823 C.ar    1  LIG1        0.0265
     14 H           2.0837    8.0042    0.5782 H       1  LIG1        0.0643
     15 C          -0.5815    5.3172   -0.0360 C.ar    1  LIG1       -0.0071
     16 C          -0.9299    6.6506   -0.1349 C.ar    1  LIG1        0.1254
     17 H          -1.3273    4.5482   -0.2018 H       1  LIG1        0.0662
     18 N           3.0018    5.5774    0.9494 N.pl3   1  LIG1       -0.3574
     19 H           3.4549    4.7903    0.5077 H       1  LIG1        0.1423
     20 H           3.6197    6.3761    0.9848 H       1  LIG1        0.1423
     21 O          -2.1987    7.0555   -0.4416 O.3     1  LIG1       -0.5061
     22 H          -2.7432    6.2972   -0.6768 H       1  LIG1        0.2922
     23 C           0.4775    9.9684   -0.7899 C.ar    1  LIG1        0.0331
     24 C           0.1366   11.3252   -0.8298 C.ar    1  LIG1       -0.0378
     25 C          -0.2935    9.0837   -0.0209 C.ar    1  LIG1        0.0013
     26 C          -0.9574   11.8062   -0.1224 C.ar    1  LIG1       -0.0135
     27 H           0.7343   12.0011   -1.4283 H       1  LIG1        0.0636
     28 C          -1.3952    9.5851    0.6763 C.ar    1  LIG1       -0.0493
     29 C          -1.7456   10.9313    0.6408 C.ar    1  LIG1       -0.0421
     30 H          -1.9963    8.8931    1.2522 H       1  LIG1        0.0627
     31 C           1.6085    9.5262   -1.5743 C.1     1  LIG1       -0.0690
     32 C           2.5524    9.2003   -2.2430 C.1     1  LIG1       -0.1139
     33 H           3.3823    8.8986   -2.8397 H       1  LIG1        0.1232
     34 C          -2.9610   11.4380    1.3949 C.3     1  LIG1       -0.0391
     35 H          -3.3546   10.6572    2.0434 H       1  LIG1        0.0278
     36 H          -3.7417   11.7360    0.6920 H       1  LIG1        0.0278
     37 H          -2.7072   12.3095    2.0017 H       1  LIG1        0.0278
     38 C          -0.7269   14.1642    0.7369 C.ar    1  LIG1       -0.0421
     39 C          -1.0587   15.5161    0.6504 C.ar    1  LIG1       -0.0491
     40 C          -1.2876   13.2671   -0.1874 C.ar    1  LIG1       -0.0134
     41 C          -1.9170   16.0029   -0.3359 C.ar    1  LIG1        0.0049
     42 H          -0.6476   16.2163    1.3681 H       1  LIG1        0.0627
     43 C          -2.1477   13.7324   -1.1765 C.ar    1  LIG1       -0.0358
     44 C          -2.4559   15.0919   -1.2562 C.ar    1  LIG1        0.0602
     45 H          -2.5676   13.0424   -1.8974 H       1  LIG1        0.0637
     46 C           0.2297   13.6675    1.8033 C.3     1  LIG1       -0.0391
     47 H           0.4393   14.4558    2.5246 H       1  LIG1        0.0278
     48 H           1.1658   13.3493    1.3406 H       1  LIG1        0.0278
     49 H          -0.1927   12.8054    2.3215 H       1  LIG1        0.0278
     50 N          -4.0057   15.9342   -3.1631 N.1     1  LIG1       -0.1908
     51 C          -3.3175   15.5647   -2.3227 C.1     1  LIG1        0.0998
     52 C          -3.5404   17.9490   -0.2124 C.ar    1  LIG1        0.2209
     53 C          -2.2273   17.4587   -0.4121 C.ar    1  LIG1        0.0460
     54 C          -1.2413   18.3983   -0.6428 C.ar    1  LIG1       -0.0294
     55 C          -1.5609   19.7579   -0.6923 C.ar    1  LIG1        0.0799
     56 C          -2.8966   20.1401   -0.5036 C.ar    1  LIG1        0.1083
     57 N          -3.8440   19.2273   -0.2618 N.ar    1  LIG1       -0.2097
     58 H          -0.2171   18.0826   -0.7980 H       1  LIG1        0.0639
     59 O          -4.5614   17.1324    0.0646 O.3     1  LIG1       -0.4920
     60 H          -4.2726   16.2122    0.1009 H       1  LIG1        0.2937
     61 N           0.3589   21.4397   -1.1235 N.1     1  LIG1       -0.1908
     62 C          -0.5076   20.7106   -0.9348 C.1     1  LIG1        0.1014
     63 C          -3.3789   21.5222   -0.5427 C.ar    1  LIG1        0.0703
     64 C          -2.7753   22.7561   -0.7495 C.ar    1  LIG1        0.0073
     65 C          -3.8025   23.7140   -0.6493 C.ar    1  LIG1        0.1427
     66 C          -4.9951   23.0574   -0.3787 C.ar    1  LIG1        0.0892
     67 N          -4.7093   21.7289   -0.3396 N.ar    1  LIG1       -0.3500
     68 H          -5.3475   20.9696   -0.1372 H       1  LIG1        0.1661
     69 H          -1.7404   22.9604   -0.9600 H       1  LIG1        0.0676
     70 O          -3.6285   25.0620   -0.8016 O.3     1  LIG1       -0.5046
     71 H          -4.3792   25.4296   -1.2835 H       1  LIG1        0.2922
     72 C          -6.6358   24.5932    0.7358 C.ar    1  LIG1       -0.0405
     73 C          -7.9360   25.0825    0.8324 C.ar    1  LIG1       -0.0463
     74 C          -6.3608   23.5997   -0.2219 C.ar    1  LIG1        0.0060
     75 C          -8.9691   24.6146    0.0179 C.ar    1  LIG1        0.0361
     76 H          -8.1650   25.8348    1.5761 H       1  LIG1        0.0628
     77 C          -7.3841   23.1155   -1.0354 C.ar    1  LIG1       -0.0342
     78 C          -8.6810   23.6120   -0.9208 C.ar    1  LIG1        0.0631
     79 H          -7.1697   22.3632   -1.7842 H       1  LIG1        0.0637
     80 C          -5.5604   25.0809    1.6871 C.3     1  LIG1       -0.0391
     81 H          -5.9867   25.7798    2.4049 H       1  LIG1        0.0278
     82 H          -4.7510   25.5656    1.1396 H       1  LIG1        0.0278
     83 H          -5.1361   24.2293    2.2218 H       1  LIG1        0.0278
     84 N         -10.4066   22.6317   -2.5948 N.1     1  LIG1       -0.1908
     85 C          -9.6754   23.0842   -1.8352 C.1     1  LIG1        0.0999
     86 C         -10.3181   25.1745    0.1752 C.ar    1  LIG1        0.1513
     87 C         -10.7696   26.3961    0.6031 C.ar    1  LIG1        0.0703
     88 C         -12.2079   26.3337    0.5343 C.ar    1  LIG1       -0.0078
     89 C         -12.4987   25.0948    0.0751 C.ar    1  LIG1        0.0938
     90 O         -11.3668   24.3961   -0.1384 O.2     1  LIG1       -0.4616
     91 H         -13.4195   24.5844   -0.1435 H       1  LIG1        0.1030
     92 C          -9.9841   27.5242    1.0049 C.1     1  LIG1       -0.0659
     93 C          -9.3400   28.4797    1.3465 C.1     1  LIG1       -0.1138
     94 H          -8.7693   29.3296    1.6413 H       1  LIG1        0.1232
     95 H         -12.8947   27.1204    0.7916 H       1  LIG1        0.0661
@<TRIPOS>BOND
     1    50    51    3
     2    33    32    1
     3    84    85    3
     4    51    44    1
     5    32    31    3
     6    45    43    1
     7    85    78    1
     8    79    77    1
     9    31    23    1
    10    27    24    1
    11     8     9    3
    12    71    70    1
    13    44    43   ar
    14    44    41   ar
    15    43    40   ar
    16    61    62    3
    17    77    78   ar
    18    77    74   ar
    19    69    64    1
    20    62    55    1
    21    78    75   ar
    22    24    23   ar
    23    24    26   ar
    24    70    65    1
    25    58    54    1
    26    23    25   ar
    27    64    65   ar
    28    64    63   ar
    29     9     3    1
    30    55    54   ar
    31    55    56   ar
    32    22    21    1
    33    65    66   ar
    34    54    53   ar
    35    63    56    1
    36    63    67   ar
    37    56    57   ar
    38    21    16    1
    39    53    41    1
    40    53    52   ar
    41    66    67   ar
    42    66    74    1
    43    67    68    1
    44    41    39   ar
    45    57    52   ar
    46    74    72   ar
    47    52    59    1
    48    17    15    1
    49    40    26    1
    50    40    38   ar
    51    91    89    1
    52    90    89   ar
    53    90    86   ar
    54    16    15   ar
    55    16    13   ar
    56    26    29   ar
    57    15    12   ar
    58    25    13    1
    59    25    28   ar
    60     3     2   ar
    61     3     4   ar
    62    75    86    1
    63    75    73   ar
    64    59    60    1
    65    89    88   ar
    66    13    11   ar
    67    86    87   ar
    68     7     2    1
    69    12     4    1
    70    12    10   ar
    71    11    10   ar
    72    11    14    1
    73     2     1   ar
    74     4     5   ar
    75    19    18    1
    76    10    18    1
    77    88    87   ar
    78    88    95    1
    79    87    92    1
    80    29    28   ar
    81    29    34    1
    82    39    38   ar
    83    39    42    1
    84    28    30    1
    85    36    34    1
    86    72    73   ar
    87    72    80    1
    88    38    46    1
    89    73    76    1
    90    18    20    1
    91    92    93    3
    92     1     5   ar
    93     1     6    1
    94    82    80    1
    95    48    46    1
    96    93    94    1
    97    34    37    1
    98    34    35    1
    99    80    83    1
   100    80    81    1
   101    46    49    1
   102    46    47    1
