@<TRIPOS>MOLECULE
mol_data/opt/m06hf/geoms/mol2/12ae12ae-.out
 20 21 0 0 0
SMALL
GASTEIGER

@<TRIPOS>ATOM
      1 C           0.1771    1.8018   -0.0000 C.ar    1  LIG1        0.0939
      2 C           1.5275    1.7651   -0.0000 C.ar    1  LIG1       -0.0077
      3 C           1.9623    3.1427   -0.0001 C.ar    1  LIG1        0.0734
      4 C           0.8164    3.8876   -0.0001 C.ar    1  LIG1        0.1850
      5 O          -0.2602    3.0816   -0.0001 O.2     1  LIG1       -0.4586
      6 H          -0.5812    1.0395   -0.0000 H       1  LIG1        0.1030
      7 H           2.1640    0.8980    0.0000 H       1  LIG1        0.0661
      8 C           3.3139    3.6126   -0.0001 C.1     1  LIG1       -0.0658
      9 C           4.4583    3.9766   -0.0000 C.1     1  LIG1       -0.1138
     10 H           5.4722    4.3035    0.0001 H       1  LIG1        0.1232
     11 C           0.5503    5.3147   -0.0001 C.ar    1  LIG1        0.1721
     12 C          -0.6133    6.0142   -0.0001 C.ar    1  LIG1        0.0027
     13 C          -0.2254    7.4017   -0.0001 C.ar    1  LIG1        0.0630
     14 C           1.1368    7.4076   -0.0002 C.ar    1  LIG1        0.1081
     15 O           1.6087    6.1526   -0.0001 O.2     1  LIG1       -0.4585
     16 H           1.8577    8.2050   -0.0002 H       1  LIG1        0.1042
     17 H          -1.6124    5.6150   -0.0001 H       1  LIG1        0.0669
     18 C          -1.0804    8.5523   -0.0001 C.1     1  LIG1       -0.0665
     19 C          -1.7991    9.5144   -0.0001 C.1     1  LIG1       -0.1138
     20 H          -2.4373   10.3676   -0.0002 H       1  LIG1        0.1232
@<TRIPOS>BOND
     1    20    19    1
     2    16    14    1
     3    14    15   ar
     4    14    13   ar
     5    15    11   ar
     6    19    18    3
     7    18    13    1
     8    13    12   ar
     9    11    12   ar
    10    11     4    1
    11    12    17    1
    12     4     5   ar
    13     4     3   ar
    14     8     3    1
    15     8     9    3
    16     5     1   ar
    17     3     2   ar
    18     1     6    1
    19     1     2   ar
    20     9    10    1
    21     2     7    1
