@<TRIPOS>MOLECULE
mol_data/opt/m06hf/geoms/mol2/12ae12ae-12ae-12ae-.out
 38 41 0 0 0
SMALL
GASTEIGER

@<TRIPOS>ATOM
      1 C          -0.1319    1.6795   -0.0003 C.ar    1  LIG1        0.0939
      2 C           1.2175    1.5961   -0.0000 C.ar    1  LIG1       -0.0077
      3 C           1.6986    2.9573    0.0001 C.ar    1  LIG1        0.0734
      4 C           0.5772    3.7386   -0.0001 C.ar    1  LIG1        0.1850
      5 O          -0.5276    2.9734   -0.0004 O.2     1  LIG1       -0.4586
      6 H          -0.9145    0.9422   -0.0004 H       1  LIG1        0.1030
      7 H           1.8212    0.7056    0.0001 H       1  LIG1        0.0661
      8 C           3.0529    3.4187    0.0003 C.1     1  LIG1       -0.0658
      9 C           4.1798    3.8338    0.0006 C.1     1  LIG1       -0.1138
     10 H           5.1650    4.2393    0.0008 H       1  LIG1        0.1232
     11 C           0.3911    5.1759   -0.0002 C.ar    1  LIG1        0.1731
     12 C          -0.7167    5.9633   -0.0002 C.ar    1  LIG1        0.0035
     13 C          -0.2279    7.3156   -0.0002 C.ar    1  LIG1        0.0741
     14 C           1.1398    7.2185   -0.0001 C.ar    1  LIG1        0.1860
     15 O           1.5091    5.9309   -0.0001 O.2     1  LIG1       -0.4473
     16 H          -1.7435    5.6431   -0.0002 H       1  LIG1        0.0669
     17 C          -0.9880    8.5272   -0.0002 C.1     1  LIG1       -0.0657
     18 C          -1.6253    9.5464   -0.0002 C.1     1  LIG1       -0.1138
     19 H          -2.1965   10.4463   -0.0003 H       1  LIG1        0.1232
     20 C           2.1903    8.2171   -0.0001 C.ar    1  LIG1        0.1732
     21 C           2.1616    9.5763    0.0000 C.ar    1  LIG1        0.0035
     22 C           3.5369    9.9897    0.0000 C.ar    1  LIG1        0.0741
     23 C           4.2768    8.8356   -0.0001 C.ar    1  LIG1        0.1860
     24 O           3.4666    7.7672   -0.0002 O.2     1  LIG1       -0.4473
     25 H           1.2881   10.2048    0.0001 H       1  LIG1        0.0669
     26 C           4.0490   11.3255    0.0001 C.1     1  LIG1       -0.0657
     27 C           4.4785   12.4481    0.0001 C.1     1  LIG1       -0.1138
     28 H           4.8551   13.4451    0.0001 H       1  LIG1        0.1232
     29 C           5.7117    8.6122   -0.0002 C.ar    1  LIG1        0.1721
     30 C           6.7639    9.4729   -0.0002 C.ar    1  LIG1        0.0027
     31 C           7.9397    8.6405   -0.0003 C.ar    1  LIG1        0.0630
     32 C           7.4883    7.3563   -0.0004 C.ar    1  LIG1        0.1081
     33 O           6.1472    7.3312   -0.0003 O.2     1  LIG1       -0.4585
     34 H           7.9989    6.4099   -0.0004 H       1  LIG1        0.1042
     35 H           6.7202   10.5478   -0.0001 H       1  LIG1        0.0669
     36 C           9.3102    9.0607   -0.0004 C.1     1  LIG1       -0.0665
     37 C          10.4569    9.4167   -0.0004 C.1     1  LIG1       -0.1138
     38 H          11.4751    9.7297   -0.0004 H       1  LIG1        0.1232
@<TRIPOS>BOND
     1     6     1    1
     2    34    32    1
     3    37    38    1
     4    37    36    3
     5     5     1   ar
     6     5     4   ar
     7    36    31    1
     8    32    31   ar
     9    32    33   ar
    10    19    18    1
    11    31    30   ar
    12     1     2   ar
    13    33    29   ar
    14    16    12    1
    15    18    17    3
    16    12    13   ar
    17    12    11   ar
    18    17    13    1
    19    30    29   ar
    20    30    35    1
    21    29    23    1
    22    13    14   ar
    23    11     4    1
    24    11    15   ar
    25    24    23   ar
    26    24    20   ar
    27     4     3   ar
    28    14    15   ar
    29    14    20    1
    30    23    22   ar
    31    20    21   ar
    32     2     3   ar
    33     2     7    1
    34    22    21   ar
    35    22    26    1
    36    21    25    1
    37     3     8    1
    38    26    27    3
    39    27    28    1
    40     8     9    3
    41     9    10    1
