@<TRIPOS>MOLECULE
mol_data/opt/m06hf/geoms/mol2/12ae12ae12ae12ae-.out
 38 41 0 0 0
SMALL
GASTEIGER

@<TRIPOS>ATOM
      1 C           0.6149    1.5965   -0.0007 C.ar    1  LIG1        0.0939
      2 C           1.9605    1.7260   -0.0003 C.ar    1  LIG1       -0.0077
      3 C           2.2167    3.1453    0.0000 C.ar    1  LIG1        0.0734
      4 C           0.9860    3.7425   -0.0003 C.ar    1  LIG1        0.1850
      5 O           0.0209    2.8105   -0.0007 O.2     1  LIG1       -0.4586
      6 H          -0.0439    0.7471   -0.0010 H       1  LIG1        0.1030
      7 H           2.6994    0.9441   -0.0001 H       1  LIG1        0.0661
      8 C           3.4836    3.8086    0.0005 C.1     1  LIG1       -0.0658
      9 C           4.5508    4.3619    0.0008 C.1     1  LIG1       -0.1138
     10 H           5.5002    4.8458    0.0011 H       1  LIG1        0.1232
     11 C           0.5903    5.1392   -0.0002 C.ar    1  LIG1        0.1731
     12 C           1.3107    6.2924   -0.0001 C.ar    1  LIG1        0.0035
     13 C           0.3411    7.3528   -0.0002 C.ar    1  LIG1        0.0741
     14 C          -0.8848    6.7403   -0.0003 C.ar    1  LIG1        0.1860
     15 O          -0.7355    5.4070   -0.0003 O.2     1  LIG1       -0.4473
     16 H           2.3821    6.3885   -0.0000 H       1  LIG1        0.0669
     17 C           0.5845    8.7622   -0.0001 C.1     1  LIG1       -0.0657
     18 C           0.7926    9.9460    0.0000 C.1     1  LIG1       -0.1138
     19 H           0.9845   10.9944    0.0001 H       1  LIG1        0.1232
     20 C          -2.2310    7.2776   -0.0003 C.ar    1  LIG1        0.1732
     21 C          -2.7082    8.5502   -0.0004 C.ar    1  LIG1        0.0035
     22 C          -4.1417    8.4304   -0.0004 C.ar    1  LIG1        0.0741
     23 C          -4.4017    7.0856   -0.0003 C.ar    1  LIG1        0.1860
     24 O          -3.2524    6.3902   -0.0003 O.2     1  LIG1       -0.4473
     25 H          -2.1314    9.4581   -0.0004 H       1  LIG1        0.0669
     26 C          -5.0894    9.5034   -0.0004 C.1     1  LIG1       -0.0657
     27 C          -5.8616   10.4232   -0.0004 C.1     1  LIG1       -0.1138
     28 H          -6.5520   11.2349   -0.0004 H       1  LIG1        0.1232
     29 C          -5.6234    6.3047   -0.0003 C.ar    1  LIG1        0.1721
     30 C          -5.8344    4.9626   -0.0002 C.ar    1  LIG1        0.0027
     31 C          -7.2660    4.8029   -0.0002 C.ar    1  LIG1        0.0630
     32 C          -7.7822    6.0634   -0.0003 C.ar    1  LIG1        0.1081
     33 O          -6.7966    6.9720   -0.0003 O.2     1  LIG1       -0.4585
     34 H          -8.7915    6.4340   -0.0003 H       1  LIG1        0.1042
     35 H          -5.0857    4.1896   -0.0001 H       1  LIG1        0.0669
     36 C          -8.0158    3.5807   -0.0000 C.1     1  LIG1       -0.0665
     37 C          -8.6465    2.5588    0.0001 C.1     1  LIG1       -0.1138
     38 H          -9.2090    1.6540    0.0001 H       1  LIG1        0.1232
@<TRIPOS>BOND
     1     6     1    1
     2     5     1   ar
     3     5     4   ar
     4     1     2   ar
     5    28    27    1
     6    27    26    3
     7    26    22    1
     8    25    21    1
     9    22    21   ar
    10    22    23   ar
    11    21    20   ar
    12    23    24   ar
    13    23    29    1
    14    33    29   ar
    15    33    32   ar
    16    15    14   ar
    17    15    11   ar
    18    20    24   ar
    19    20    14    1
    20    29    30   ar
    21     4    11    1
    22     4     3   ar
    23    34    32    1
    24    14    13   ar
    25     2     7    1
    26     2     3   ar
    27    32    31   ar
    28    11    12   ar
    29    30    31   ar
    30    30    35    1
    31    31    36    1
    32    13    12   ar
    33    13    17    1
    34    12    16    1
    35    17    18    3
    36    36    37    3
    37     3     8    1
    38    18    19    1
    39    37    38    1
    40     8     9    3
    41     9    10    1
