@<TRIPOS>MOLECULE
mol_data/opt/m06hf/geoms/mol2/12ae12ae-12ae.out
 29 31 0 0 0
SMALL
GASTEIGER

@<TRIPOS>ATOM
      1 C           0.1740    1.7657   -0.0003 C.ar    1  LIG1        0.0939
      2 C           1.5248    1.7482   -0.0002 C.ar    1  LIG1       -0.0077
      3 C           1.9398    3.1318   -0.0000 C.ar    1  LIG1        0.0734
      4 C           0.7823    3.8593   -0.0001 C.ar    1  LIG1        0.1850
      5 O          -0.2825    3.0392   -0.0003 O.2     1  LIG1       -0.4586
      6 H          -0.5745    0.9942   -0.0004 H       1  LIG1        0.1030
      7 H           2.1740    0.8905   -0.0001 H       1  LIG1        0.0661
      8 C           3.2834    3.6244    0.0002 C.1     1  LIG1       -0.0658
      9 C           4.4225    4.0060    0.0003 C.1     1  LIG1       -0.1138
     10 H           5.4334    4.3429    0.0004 H       1  LIG1        0.1232
     11 C           0.5074    5.2821   -0.0001 C.ar    1  LIG1        0.1731
     12 C          -0.6538    5.9862   -0.0000 C.ar    1  LIG1        0.0035
     13 C          -0.2697    7.3736   -0.0000 C.ar    1  LIG1        0.0741
     14 C           1.0996    7.3779   -0.0001 C.ar    1  LIG1        0.1860
     15 O           1.5674    6.1181   -0.0001 O.2     1  LIG1       -0.4473
     16 H          -1.6541    5.5904   -0.0000 H       1  LIG1        0.0669
     17 C          -1.1443    8.5066    0.0000 C.1     1  LIG1       -0.0657
     18 C          -1.9003    9.4394    0.0000 C.1     1  LIG1       -0.1138
     19 H          -2.5691   10.2686    0.0002 H       1  LIG1        0.1232
     20 C           2.1074    8.4196   -0.0001 C.ar    1  LIG1        0.1721
     21 C           3.4633    8.3448   -0.0001 C.ar    1  LIG1        0.0027
     22 C           3.9188    9.7111   -0.0002 C.ar    1  LIG1        0.0630
     23 C           2.7941   10.4796   -0.0002 C.ar    1  LIG1        0.1081
     24 O           1.6988    9.7057   -0.0002 O.2     1  LIG1       -0.4585
     25 H           2.6448   11.5441   -0.0003 H       1  LIG1        0.1042
     26 H           4.0601    7.4491   -0.0001 H       1  LIG1        0.0669
     27 C           5.2724   10.1835   -0.0003 C.1     1  LIG1       -0.0665
     28 C           6.4075   10.5751   -0.0003 C.1     1  LIG1       -0.1138
     29 H           7.4141   10.9242   -0.0003 H       1  LIG1        0.1232
@<TRIPOS>BOND
     1     6     1    1
     2    29    28    1
     3    28    27    3
     4     1     5   ar
     5     1     2   ar
     6     5     4   ar
     7    27    22    1
     8    25    23    1
     9    23    22   ar
    10    23    24   ar
    11    22    21   ar
    12    24    20   ar
    13     2     7    1
    14     2     3   ar
    15    21    26    1
    16    21    20   ar
    17    20    14    1
    18     4    11    1
    19     4     3   ar
    20    15    11   ar
    21    15    14   ar
    22    11    12   ar
    23    14    13   ar
    24    12    13   ar
    25    12    16    1
    26    13    17    1
    27     3     8    1
    28    17    18    3
    29    18    19    1
    30     8     9    3
    31     9    10    1
