@<TRIPOS>MOLECULE
mol_data/opt/m06hf/geoms/mol2/12ae12ae12ae.out
 29 31 0 0 0
SMALL
GASTEIGER

@<TRIPOS>ATOM
      1 C           0.3831    1.6070   -0.0001 C.ar    1  LIG1        0.0939
      2 C           1.7325    1.6962   -0.0000 C.ar    1  LIG1       -0.0077
      3 C           2.0312    3.1073   -0.0000 C.ar    1  LIG1        0.0734
      4 C           0.8189    3.7409   -0.0001 C.ar    1  LIG1        0.1850
      5 O          -0.1737    2.8385   -0.0001 O.2     1  LIG1       -0.4586
      6 H          -0.2993    0.7762   -0.0001 H       1  LIG1        0.1030
      7 H           2.4458    0.8909    0.0000 H       1  LIG1        0.0661
      8 C           3.3177    3.7319    0.0000 C.1     1  LIG1       -0.0658
      9 C           4.4021    4.2507    0.0000 C.1     1  LIG1       -0.1138
     10 H           5.3678    4.7010    0.0000 H       1  LIG1        0.1232
     11 C           0.4638    5.1484   -0.0001 C.ar    1  LIG1        0.1731
     12 C           1.2165    6.2806   -0.0001 C.ar    1  LIG1        0.0035
     13 C           0.2770    7.3680   -0.0001 C.ar    1  LIG1        0.0741
     14 C          -0.9657    6.7910   -0.0001 C.ar    1  LIG1        0.1860
     15 O          -0.8535    5.4542   -0.0001 O.2     1  LIG1       -0.4473
     16 H           2.2901    6.3446   -0.0000 H       1  LIG1        0.0669
     17 C           0.5622    8.7701   -0.0001 C.1     1  LIG1       -0.0657
     18 C           0.8108    9.9462   -0.0001 C.1     1  LIG1       -0.1138
     19 H           1.0430   10.9862   -0.0001 H       1  LIG1        0.1232
     20 C          -2.3008    7.3618   -0.0002 C.ar    1  LIG1        0.1721
     21 C          -2.7474    8.6459   -0.0002 C.ar    1  LIG1        0.0027
     22 C          -4.1844    8.5501   -0.0002 C.ar    1  LIG1        0.0630
     23 C          -4.4711    7.2185   -0.0003 C.ar    1  LIG1        0.1081
     24 O          -3.3408    6.4985   -0.0003 O.2     1  LIG1       -0.4585
     25 H          -5.4002    6.6765   -0.0003 H       1  LIG1        0.1042
     26 H          -2.1507    9.5408   -0.0001 H       1  LIG1        0.0669
     27 C          -5.1316    9.6262   -0.0003 C.1     1  LIG1       -0.0665
     28 C          -5.9185   10.5333   -0.0003 C.1     1  LIG1       -0.1138
     29 H          -6.6153   11.3395   -0.0003 H       1  LIG1        0.1232
@<TRIPOS>BOND
     1    25    23    1
     2    23    24   ar
     3    23    22   ar
     4    29    28    1
     5    28    27    3
     6    24    20   ar
     7    27    22    1
     8    22    21   ar
     9    20    21   ar
    10    20    14    1
    11    21    26    1
    12    14    15   ar
    13    14    13   ar
    14    15    11   ar
    15    19    18    1
    16     5     1   ar
    17     5     4   ar
    18    13    17    1
    19    13    12   ar
    20     6     1    1
    21    17    18    3
    22    11     4    1
    23    11    12   ar
    24     1     2   ar
    25     4     3   ar
    26    12    16    1
    27     3     2   ar
    28     3     8    1
    29     2     7    1
    30     8     9    3
    31    10     9    1
