@<TRIPOS>MOLECULE
mol_data/opt/m06hf/geoms/mol2/12ae13ld-6ae-12dh.out
 45 48 0 0 0
SMALL
GASTEIGER

@<TRIPOS>ATOM
      1 C          -0.0244    1.4615    0.0034 C.ar    1  LIG1        0.0939
      2 C           1.3021    1.3688    0.2298 C.ar    1  LIG1       -0.0078
      3 C           1.8158    2.7193    0.1716 C.ar    1  LIG1        0.0719
      4 C           0.7380    3.5125   -0.1030 C.ar    1  LIG1        0.1698
      5 O          -0.3761    2.7542   -0.2010 O.2     1  LIG1       -0.4601
      6 H          -0.8189    0.7388   -0.0493 H       1  LIG1        0.1030
      7 H           1.8771    0.4807    0.4246 H       1  LIG1        0.0661
      8 C           3.1705    3.1096    0.4186 C.1     1  LIG1       -0.0658
      9 C           4.3193    3.3708    0.6572 C.1     1  LIG1       -0.1138
     10 H           5.3391    3.6031    0.8624 H       1  LIG1        0.1232
     11 C           0.5299    4.9392   -0.2743 C.ar    1  LIG1        0.1272
     12 C           1.3772    5.9677   -0.6260 C.ar    1  LIG1        0.1662
     13 C           0.5964    7.1628   -0.6385 C.ar    1  LIG1        0.1193
     14 C          -0.7081    6.8156   -0.3123 C.ar    1  LIG1        0.0697
     15 N          -0.7216    5.4782   -0.1074 N.ar    1  LIG1       -0.3477
     16 H          -1.5189    4.9423    0.2045 H       1  LIG1        0.1661
     17 O           2.6750    5.8358   -0.9647 O.3     1  LIG1       -0.4916
     18 C           3.5935    6.5273   -0.1127 C.3     1  LIG1        0.0789
     19 H           4.5827    6.2873   -0.4925 H       1  LIG1        0.0660
     20 H           3.4243    7.6035   -0.1642 H       1  LIG1        0.0660
     21 H           3.4851    6.1665    0.9106 H       1  LIG1        0.0660
     22 N           1.4384    9.5241   -1.2463 N.1     1  LIG1       -0.1907
     23 C           1.0570    8.4708   -0.9913 C.1     1  LIG1        0.1050
     24 C          -3.1764    7.1110   -0.5141 C.ar    1  LIG1        0.0376
     25 C          -1.9194    7.6416   -0.1961 C.ar    1  LIG1        0.0190
     26 C          -1.8638    8.9603    0.2431 C.ar    1  LIG1       -0.0335
     27 C          -3.0469    9.6932    0.3562 C.ar    1  LIG1        0.0543
     28 C          -4.2521    9.0585    0.0117 C.ar    1  LIG1        0.1226
     29 N          -4.3035    7.7940   -0.4050 N.ar    1  LIG1       -0.2500
     30 H          -0.9245    9.4226    0.5164 H       1  LIG1        0.0637
     31 H          -3.2684    6.0998   -0.8953 H       1  LIG1        0.0836
     32 C          -3.0047   11.0353    0.8722 C.1     1  LIG1       -0.0674
     33 C          -2.9367   12.1530    1.3056 C.1     1  LIG1       -0.1138
     34 H          -2.8915   13.1552    1.6662 H       1  LIG1        0.1232
     35 C          -5.5623    9.7366    0.1083 C.ar    1  LIG1        0.1732
     36 C          -6.0182   10.9852   -0.2202 C.ar    1  LIG1        0.1195
     37 C          -7.4330   10.9988    0.0650 C.ar    1  LIG1        0.0811
     38 C          -7.7062    9.7578    0.5437 C.ar    1  LIG1        0.1145
     39 O          -6.5784    9.0037    0.5596 O.2     1  LIG1       -0.4581
     40 H          -8.6065    9.2932    0.9000 H       1  LIG1        0.1049
     41 N          -4.8744   13.0035   -1.3407 N.1     1  LIG1       -0.1907
     42 C          -5.3309   12.0803   -0.8330 C.1     1  LIG1        0.1049
     43 N          -8.2667   12.1033   -0.0905 N.pl3   1  LIG1       -0.3545
     44 H          -7.8831   12.8073   -0.7088 H       1  LIG1        0.1424
     45 H          -9.2188   11.8711   -0.3381 H       1  LIG1        0.1424
@<TRIPOS>BOND
     1    41    42    3
     2    22    23    3
     3    23    13    1
     4    17    12    1
     5    17    18    1
     6    31    24    1
     7    42    36    1
     8    44    43    1
     9    13    12   ar
    10    13    14   ar
    11    12    11   ar
    12    24    29   ar
    13    24    25   ar
    14    19    18    1
    15    29    28   ar
    16    45    43    1
    17    14    25    1
    18    14    15   ar
    19    11    15   ar
    20    11     4    1
    21    36    37   ar
    22    36    35   ar
    23     5     4   ar
    24     5     1   ar
    25    25    26   ar
    26    20    18    1
    27    18    21    1
    28    15    16    1
    29     4     3   ar
    30    43    37    1
    31     6     1    1
    32     1     2   ar
    33    28    35    1
    34    28    27   ar
    35    37    38   ar
    36    35    39   ar
    37     3     2   ar
    38     3     8    1
    39     2     7    1
    40    26    27   ar
    41    26    30    1
    42    27    32    1
    43     8     9    3
    44    38    39   ar
    45    38    40    1
    46     9    10    1
    47    32    33    3
    48    33    34    1
