@<TRIPOS>MOLECULE
mol_data/opt/m06hf/geoms/mol2/12ae6fi12da-12da.out
 40 43 0 0 0
SMALL
GASTEIGER

@<TRIPOS>ATOM
      1 C           0.4634    1.5763   -0.2512 C.ar    1  LIG1        0.0938
      2 C           1.8020    1.6834   -0.1417 C.ar    1  LIG1       -0.0078
      3 C           2.0867    3.0979   -0.0673 C.ar    1  LIG1        0.0705
      4 C           0.8791    3.7384   -0.1320 C.ar    1  LIG1        0.1552
      5 O          -0.1026    2.8093   -0.2429 O.2     1  LIG1       -0.4615
      6 H          -0.2103    0.7432   -0.3380 H       1  LIG1        0.1030
      7 H           2.5262    0.8881   -0.1172 H       1  LIG1        0.0661
      8 C           3.3893    3.6839    0.0300 C.1     1  LIG1       -0.0659
      9 C           4.4950    4.1475    0.1140 C.1     1  LIG1       -0.1138
     10 H           5.4775    4.5557    0.1808 H       1  LIG1        0.1232
     11 C          -0.7587    5.6154   -0.5934 C.ar    1  LIG1        0.2239
     12 C           0.4900    5.1529   -0.1021 C.ar    1  LIG1        0.0800
     13 C           1.3597    6.1039    0.4143 C.ar    1  LIG1       -0.0409
     14 C           1.0421    7.4641    0.4185 C.ar    1  LIG1       -0.0205
     15 C          -0.1964    7.7874   -0.1365 C.ar    1  LIG1        0.1140
     16 N          -1.0672    6.8918   -0.6053 N.ar    1  LIG1       -0.2090
     17 H           2.3042    5.7782    0.8326 H       1  LIG1        0.0630
     18 O          -1.7017    4.7983   -1.0838 O.3     1  LIG1       -0.4919
     19 H          -1.4524    3.8727   -0.9764 H       1  LIG1        0.2938
     20 C           2.0009    8.4622    1.0382 C.3     1  LIG1       -0.0376
     21 H           1.4686    9.3428    1.3975 H       1  LIG1        0.0278
     22 H           2.7482    8.7830    0.3116 H       1  LIG1        0.0278
     23 H           2.5070    7.9938    1.8824 H       1  LIG1        0.0278
     24 C          -0.6768    9.1864   -0.2395 C.ar    1  LIG1        0.1716
     25 C          -0.1048   10.3512   -0.6792 C.ar    1  LIG1        0.0996
     26 C          -1.1112   11.3708   -0.5987 C.ar    1  LIG1        0.0054
     27 C          -2.2101   10.7315   -0.1179 C.ar    1  LIG1        0.1732
     28 O          -1.9493    9.4256    0.0955 O.2     1  LIG1       -0.4488
     29 N           2.2855   10.6182   -1.6175 N.1     1  LIG1       -0.1907
     30 C           1.2238   10.4960   -1.1990 C.1     1  LIG1        0.1030
     31 H          -1.0161   12.4082   -0.8722 H       1  LIG1        0.0670
     32 C          -3.5517   11.1957    0.1947 C.ar    1  LIG1        0.1870
     33 C          -4.1220   12.4378    0.1552 C.ar    1  LIG1        0.1004
     34 C          -5.4885   12.2697    0.5735 C.ar    1  LIG1       -0.0057
     35 C          -5.6212   10.9480    0.8290 C.ar    1  LIG1        0.0940
     36 O          -4.4560   10.3009    0.6014 O.2     1  LIG1       -0.4585
     37 H          -6.4423   10.3407    1.1640 H       1  LIG1        0.1030
     38 N          -2.8750   14.5852   -0.5431 N.1     1  LIG1       -0.1907
     39 C          -3.4453   13.6393   -0.2299 C.1     1  LIG1        0.1031
     40 H          -6.2349   13.0393    0.6624 H       1  LIG1        0.0662
@<TRIPOS>BOND
     1    29    30    3
     2    30    25    1
     3    18    19    1
     4    18    11    1
     5    31    26    1
     6    25    26   ar
     7    25    24   ar
     8    16    11   ar
     9    16    15   ar
    10    26    27   ar
    11    11    12   ar
    12    38    39    3
    13     6     1    1
    14     1     5   ar
    15     1     2   ar
    16     5     4   ar
    17    24    15    1
    18    24    28   ar
    19    39    33    1
    20     2     7    1
    21     2     3   ar
    22    15    14   ar
    23     4    12    1
    24     4     3   ar
    25    27    28   ar
    26    27    32    1
    27    12    13   ar
    28     3     8    1
    29     8     9    3
    30     9    10    1
    31    33    32   ar
    32    33    34   ar
    33    32    36   ar
    34    22    20    1
    35    13    14   ar
    36    13    17    1
    37    14    20    1
    38    34    40    1
    39    34    35   ar
    40    36    35   ar
    41    35    37    1
    42    20    21    1
    43    20    23    1
