@<TRIPOS>MOLECULE
mol_data/opt/m06hf/geoms/mol2/12ae12ae.out
 20 21 0 0 0
SMALL
GASTEIGER

@<TRIPOS>ATOM
      1 C           0.1911    1.7293   -0.0001 C.ar    1  LIG1        0.0939
      2 C           1.5426    1.7537   -0.0000 C.ar    1  LIG1       -0.0077
      3 C           1.9088    3.1490   -0.0000 C.ar    1  LIG1        0.0734
      4 C           0.7290    3.8407   -0.0001 C.ar    1  LIG1        0.1850
      5 O          -0.3061    2.9864   -0.0001 O.2     1  LIG1       -0.4586
      6 H          -0.5314    0.9331   -0.0001 H       1  LIG1        0.1030
      7 H           2.2165    0.9155    0.0000 H       1  LIG1        0.0661
      8 C           3.2246    3.7107    0.0000 C.1     1  LIG1       -0.0658
      9 C           4.3339    4.1745    0.0000 C.1     1  LIG1       -0.1138
     10 H           5.3198    4.5795    0.0001 H       1  LIG1        0.1232
     11 C           0.4390    5.2652   -0.0001 C.ar    1  LIG1        0.1721
     12 C           1.2406    6.3626   -0.0001 C.ar    1  LIG1        0.0027
     13 C           0.3444    7.4908   -0.0001 C.ar    1  LIG1        0.0630
     14 C          -0.9133    6.9694   -0.0002 C.ar    1  LIG1        0.1081
     15 O          -0.8632    5.6299   -0.0001 O.2     1  LIG1       -0.4585
     16 H          -1.8877    7.4246   -0.0002 H       1  LIG1        0.1042
     17 H           2.3161    6.3779   -0.0001 H       1  LIG1        0.0669
     18 C           0.6875    8.8826   -0.0001 C.1     1  LIG1       -0.0665
     19 C           0.9790   10.0473   -0.0001 C.1     1  LIG1       -0.1138
     20 H           1.2384   11.0803   -0.0001 H       1  LIG1        0.1232
@<TRIPOS>BOND
     1    16    14    1
     2    14    15   ar
     3    14    13   ar
     4    15    11   ar
     5    19    20    1
     6    19    18    3
     7    18    13    1
     8    13    12   ar
     9    11    12   ar
    10    11     4    1
    11     5     4   ar
    12     5     1   ar
    13    12    17    1
    14     6     1    1
    15     4     3   ar
    16     1     2   ar
    17     3     2   ar
    18     3     8    1
    19     2     7    1
    20     8     9    3
    21     9    10    1
