@<TRIPOS>MOLECULE
mol_data/opt/m06hf/geoms/mol2/12ae12ae12ae-12ae-.out
 38 41 0 0 0
SMALL
GASTEIGER

@<TRIPOS>ATOM
      1 C           0.2941    1.6076   -0.0003 C.ar    1  LIG1        0.0939
      2 C           1.6453    1.6406   -0.0001 C.ar    1  LIG1       -0.0077
      3 C           2.0030    3.0379   -0.0001 C.ar    1  LIG1        0.0734
      4 C           0.8180    3.7218   -0.0002 C.ar    1  LIG1        0.1850
      5 O          -0.2118    2.8609   -0.0003 O.2     1  LIG1       -0.4586
      6 H          -0.4223    0.8060   -0.0004 H       1  LIG1        0.1030
      7 H           2.3252    0.8070   -0.0001 H       1  LIG1        0.0661
      8 C           3.3140    3.6104    0.0001 C.1     1  LIG1       -0.0658
      9 C           4.4180    4.0870    0.0002 C.1     1  LIG1       -0.1138
     10 H           5.4003    4.5011    0.0004 H       1  LIG1        0.1232
     11 C           0.5231    5.1431   -0.0001 C.ar    1  LIG1        0.1731
     12 C           1.3199    6.2437   -0.0001 C.ar    1  LIG1        0.0035
     13 C           0.4276    7.3722   -0.0001 C.ar    1  LIG1        0.0741
     14 C          -0.8358    6.8455   -0.0001 C.ar    1  LIG1        0.1860
     15 O          -0.7815    5.5024   -0.0002 O.2     1  LIG1       -0.4473
     16 H           2.3956    6.2635   -0.0001 H       1  LIG1        0.0669
     17 C           0.7830    8.7585   -0.0001 C.1     1  LIG1       -0.0657
     18 C           1.0845    9.9209    0.0000 C.1     1  LIG1       -0.1138
     19 H           1.3419   10.9547    0.0001 H       1  LIG1        0.1232
     20 C          -2.1577    7.4359   -0.0001 C.ar    1  LIG1        0.1732
     21 C          -3.3961    6.8765   -0.0001 C.ar    1  LIG1        0.0035
     22 C          -4.3159    7.9800   -0.0001 C.ar    1  LIG1        0.0741
     23 C          -3.5433    9.1120   -0.0002 C.ar    1  LIG1        0.1860
     24 O          -2.2428    8.7833   -0.0002 O.2     1  LIG1       -0.4473
     25 H          -3.6335    5.8271   -0.0000 H       1  LIG1        0.0669
     26 C          -5.7458    7.9298   -0.0001 C.1     1  LIG1       -0.0657
     27 C          -6.9473    7.8849   -0.0000 C.1     1  LIG1       -0.1138
     28 H          -8.0122    7.8349   -0.0001 H       1  LIG1        0.1232
     29 C          -3.8880   10.5219   -0.0003 C.ar    1  LIG1        0.1721
     30 C          -5.0841   11.1685   -0.0002 C.ar    1  LIG1        0.0027
     31 C          -4.7585   12.5715   -0.0003 C.ar    1  LIG1        0.0630
     32 C          -3.3985   12.6399   -0.0005 C.ar    1  LIG1        0.1081
     33 O          -2.8681   11.4094   -0.0004 O.2     1  LIG1       -0.4585
     34 H          -2.7156   13.4706   -0.0006 H       1  LIG1        0.1042
     35 H          -6.0624   10.7206   -0.0001 H       1  LIG1        0.0669
     36 C          -5.6660   13.6813   -0.0003 C.1     1  LIG1       -0.0665
     37 C          -6.4293   14.6081   -0.0003 C.1     1  LIG1       -0.1138
     38 H          -7.1066   15.4306   -0.0003 H       1  LIG1        0.1232
@<TRIPOS>BOND
     1    34    32    1
     2    32    33   ar
     3    32    31   ar
     4    33    29   ar
     5     6     1    1
     6    31    36    1
     7    31    30   ar
     8    38    37    1
     9    36    37    3
    10     1     5   ar
    11     1     2   ar
    12     5     4   ar
    13    29    30   ar
    14    29    23    1
    15    30    35    1
    16    24    23   ar
    17    24    20   ar
    18    23    22   ar
    19     4    11    1
    20     4     3   ar
    21    15    14   ar
    22    15    11   ar
    23    20    14    1
    24    20    21   ar
    25    14    13   ar
    26     2     3   ar
    27     2     7    1
    28    11    12   ar
    29    28    27    1
    30    13    17    1
    31    13    12   ar
    32    17    18    3
    33    22    26    1
    34    22    21   ar
    35    12    16    1
    36     3     8    1
    37    26    27    3
    38    21    25    1
    39    18    19    1
    40     8     9    3
    41     9    10    1
