@<TRIPOS>MOLECULE
mol_data/opt/m06hf/geoms/mol2/12ae12ae-12ae-12ae.out
 38 41 0 0 0
SMALL
GASTEIGER

@<TRIPOS>ATOM
      1 C          -0.1307    1.7287   -0.0003 C.ar    1  LIG1        0.0939
      2 C           1.2135    1.5935    0.0001 C.ar    1  LIG1       -0.0077
      3 C           1.7490    2.9352    0.0001 C.ar    1  LIG1        0.0734
      4 C           0.6606    3.7621   -0.0001 C.ar    1  LIG1        0.1850
      5 O          -0.4726    3.0370   -0.0003 O.2     1  LIG1       -0.4586
      6 H          -0.9429    1.0240   -0.0004 H       1  LIG1        0.1030
      7 H           1.7839    0.6814    0.0002 H       1  LIG1        0.0661
      8 C           3.1343    3.2926    0.0004 C.1     1  LIG1       -0.0658
      9 C           4.3088    3.5421    0.0007 C.1     1  LIG1       -0.1138
     10 H           5.3516    3.7586    0.0010 H       1  LIG1        0.1232
     11 C           0.4875    5.2017   -0.0001 C.ar    1  LIG1        0.1731
     12 C          -0.6365    5.9653   -0.0002 C.ar    1  LIG1        0.0035
     13 C          -0.1782    7.3265   -0.0002 C.ar    1  LIG1        0.0741
     14 C           1.1910    7.2600   -0.0001 C.ar    1  LIG1        0.1860
     15 O           1.5917    5.9784   -0.0000 O.2     1  LIG1       -0.4473
     16 H          -1.6557    5.6216   -0.0003 H       1  LIG1        0.0669
     17 C          -0.9676    8.5191   -0.0002 C.1     1  LIG1       -0.0657
     18 C          -1.6323    9.5206   -0.0005 C.1     1  LIG1       -0.1138
     19 H          -2.2267   10.4055   -0.0009 H       1  LIG1        0.1232
     20 C           2.2029    8.2973   -0.0000 C.ar    1  LIG1        0.1732
     21 C           2.1188    9.6541    0.0001 C.ar    1  LIG1        0.0035
     22 C           3.4761   10.1295    0.0000 C.ar    1  LIG1        0.0741
     23 C           4.2620    9.0078   -0.0001 C.ar    1  LIG1        0.1860
     24 O           3.4968    7.9038   -0.0001 O.2     1  LIG1       -0.4473
     25 H           1.2202   10.2460    0.0002 H       1  LIG1        0.0669
     26 C           3.9093   11.4940    0.0001 C.1     1  LIG1       -0.0657
     27 C           4.2538   12.6446    0.0002 C.1     1  LIG1       -0.1138
     28 H           4.5680   13.6630    0.0006 H       1  LIG1        0.1232
     29 C           5.6947    8.7885   -0.0002 C.ar    1  LIG1        0.1721
     30 C           6.4226    7.6419   -0.0004 C.ar    1  LIG1        0.0027
     31 C           7.7992    8.0641   -0.0004 C.ar    1  LIG1        0.0630
     32 C           7.7709    9.4262   -0.0003 C.ar    1  LIG1        0.1081
     33 O           6.5046    9.8676   -0.0001 O.2     1  LIG1       -0.4585
     34 H           8.5490   10.1685   -0.0002 H       1  LIG1        0.1042
     35 H           6.0386    6.6375   -0.0005 H       1  LIG1        0.0669
     36 C           8.9702    7.2363   -0.0006 C.1     1  LIG1       -0.0665
     37 C           9.9480    6.5386   -0.0008 C.1     1  LIG1       -0.1138
     38 H          10.8180    5.9232   -0.0003 H       1  LIG1        0.1232
@<TRIPOS>BOND
     1    19    18    1
     2    37    36    3
     3    37    38    1
     4    36    31    1
     5    35    30    1
     6    18    17    3
     7    31    30   ar
     8    31    32   ar
     9     6     1    1
    10    30    29   ar
    11     5     1   ar
    12     5     4   ar
    13    16    12    1
    14    32    34    1
    15    32    33   ar
    16     1     2   ar
    17    17    13    1
    18    12    13   ar
    19    12    11   ar
    20    29    33   ar
    21    29    23    1
    22    13    14   ar
    23    24    23   ar
    24    24    20   ar
    25    11     4    1
    26    11    15   ar
    27     4     3   ar
    28    14    15   ar
    29    14    20    1
    30    23    22   ar
    31    20    21   ar
    32    22    26    1
    33    22    21   ar
    34     2     3   ar
    35     2     7    1
    36    26    27    3
    37    21    25    1
    38     3     8    1
    39    27    28    1
    40     8     9    3
    41     9    10    1
