@<TRIPOS>MOLECULE
mol_data/opt/m06hf/geoms/mol2/12ae4ee6eh-6fa-.out
 48 51 0 0 0
SMALL
GASTEIGER

@<TRIPOS>ATOM
      1 C           1.4154    1.8187    0.6670 C.ar    1  LIG1        0.0938
      2 C           2.7119    1.8951    0.2932 C.ar    1  LIG1       -0.0078
      3 C           2.9455    3.2817   -0.0330 C.ar    1  LIG1        0.0703
      4 C           1.7527    3.9206    0.1653 C.ar    1  LIG1        0.1513
      5 O           0.8330    3.0347    0.5990 O.2     1  LIG1       -0.4616
      6 H           0.7871    1.0070    0.9880 H       1  LIG1        0.1030
      7 H           3.4348    1.0996    0.2503 H       1  LIG1        0.0661
      8 C           4.1997    3.8704   -0.3945 C.1     1  LIG1       -0.0659
      9 C           5.2670    4.3442   -0.6769 C.1     1  LIG1       -0.1138
     10 H           6.2076    4.7758   -0.9299 H       1  LIG1        0.1232
     11 C           1.6270    6.1549   -1.0018 C.ar    1  LIG1        0.0360
     12 C           1.2142    7.4905   -0.9892 C.ar    1  LIG1       -0.0367
     13 C           1.3239    5.3281    0.0919 C.ar    1  LIG1        0.0350
     14 C           0.4887    8.0134    0.0754 C.ar    1  LIG1        0.0014
     15 H           1.4596    8.1194   -1.8340 H       1  LIG1        0.0636
     16 C           0.5754    5.8424    1.1486 C.ar    1  LIG1       -0.0339
     17 C           0.1555    7.1721    1.1525 C.ar    1  LIG1        0.0332
     18 H           0.3184    5.2033    1.9820 H       1  LIG1        0.0637
     19 C           2.3083    5.6550   -2.1693 C.1     1  LIG1       -0.0689
     20 C           2.8546    5.2636   -3.1651 C.1     1  LIG1       -0.1139
     21 H           3.3487    4.9024   -4.0370 H       1  LIG1        0.1232
     22 C          -0.6259    7.6494    2.2700 C.1     1  LIG1       -0.0690
     23 C          -1.2755    8.0166    3.2119 C.1     1  LIG1       -0.1139
     24 H          -1.8603    8.3423    4.0409 H       1  LIG1        0.1232
     25 C          -0.5987   10.0369   -0.9898 C.ar    1  LIG1        0.1216
     26 C           0.0947    9.4506    0.0749 C.ar    1  LIG1        0.0189
     27 C           0.4574   10.2768    1.1335 C.ar    1  LIG1       -0.0285
     28 C           0.1217   11.6286    1.1451 C.ar    1  LIG1        0.0517
     29 C          -0.6526   12.1162    0.0639 C.ar    1  LIG1        0.0980
     30 N          -0.9456   11.3237   -0.9634 N.ar    1  LIG1       -0.2358
     31 H           1.0300    9.8618    1.9549 H       1  LIG1        0.0643
     32 C          -0.9914    9.2872   -2.1635 C.1     1  LIG1       -0.0492
     33 C          -1.3165    8.6776   -3.1453 C.1     1  LIG1       -0.1124
     34 H          -1.6088    8.1377   -4.0164 H       1  LIG1        0.1232
     35 N           0.5307   12.4494    2.1888 N.pl3   1  LIG1       -0.3563
     36 H           1.2745   12.0629    2.7537 H       1  LIG1        0.1424
     37 H           0.7043   13.4123    1.9269 H       1  LIG1        0.1424
     38 C          -1.3587   14.1245   -1.2958 C.ar    1  LIG1        0.2218
     39 C          -1.1462   13.5180   -0.0253 C.ar    1  LIG1        0.0635
     40 C          -1.4694   14.2744    1.0998 C.ar    1  LIG1       -0.0460
     41 C          -1.8889   15.5926    0.9574 C.ar    1  LIG1       -0.0427
     42 C          -1.9631   16.1064   -0.3321 C.ar    1  LIG1        0.0314
     43 N          -1.7183   15.3927   -1.4263 N.ar    1  LIG1       -0.2209
     44 H          -1.4022   13.8230    2.0820 H       1  LIG1        0.0626
     45 H          -2.2488   17.1386   -0.4983 H       1  LIG1        0.0831
     46 O          -1.2079   13.4410   -2.4245 O.3     1  LIG1       -0.4919
     47 H          -1.1728   12.4793   -2.1922 H       1  LIG1        0.2937
     48 H          -2.1440   16.1994    1.8135 H       1  LIG1        0.0633
@<TRIPOS>BOND
     1    21    20    1
     2    34    33    1
     3    20    19    3
     4    33    32    3
     5    46    47    1
     6    46    38    1
     7    19    11    1
     8    32    25    1
     9    15    12    1
    10    43    38   ar
    11    43    42   ar
    12    38    39   ar
    13    11    12   ar
    14    11    13   ar
    15    25    30   ar
    16    25    26   ar
    17    12    14   ar
    18    30    29   ar
    19    10     9    1
    20     9     8    3
    21    45    42    1
    22     8     3    1
    23    42    41   ar
    24     3     4   ar
    25     3     2   ar
    26    39    29    1
    27    39    40   ar
    28    29    28   ar
    29    26    14    1
    30    26    27   ar
    31    14    17   ar
    32    13     4    1
    33    13    16   ar
    34     4     5   ar
    35     7     2    1
    36     2     1   ar
    37     5     1   ar
    38     1     6    1
    39    41    40   ar
    40    41    48    1
    41    40    44    1
    42    27    28   ar
    43    27    31    1
    44    28    35    1
    45    16    17   ar
    46    16    18    1
    47    17    22    1
    48    37    35    1
    49    35    36    1
    50    22    23    3
    51    23    24    1
