@<TRIPOS>MOLECULE
mol_data/opt/m06hf/geoms/mol2/12ae12ae-12ae12ae.out
 38 41 0 0 0
SMALL
GASTEIGER

@<TRIPOS>ATOM
      1 C           0.2456    1.6586   -0.0000 C.ar    1  LIG1        0.0939
      2 C           1.5966    1.6713   -0.0000 C.ar    1  LIG1       -0.0077
      3 C           1.9812    3.0633   -0.0000 C.ar    1  LIG1        0.0734
      4 C           0.8076    3.7650   -0.0001 C.ar    1  LIG1        0.1850
      5 O          -0.2388    2.9215   -0.0001 O.2     1  LIG1       -0.4586
      6 H          -0.4836    0.8684   -0.0000 H       1  LIG1        0.1030
      7 H           2.2634    0.8272    0.0000 H       1  LIG1        0.0661
      8 C           3.3137    3.5859   -0.0000 C.1     1  LIG1       -0.0658
      9 C           4.4454    3.9888   -0.0000 C.1     1  LIG1       -0.1138
     10 H           5.4507    4.3411   -0.0000 H       1  LIG1        0.1232
     11 C           0.4987    5.1809   -0.0001 C.ar    1  LIG1        0.1731
     12 C          -0.6791    5.8579   -0.0001 C.ar    1  LIG1        0.0035
     13 C          -0.3275    7.2532   -0.0001 C.ar    1  LIG1        0.0741
     14 C           1.0416    7.2889   -0.0001 C.ar    1  LIG1        0.1860
     15 O           1.5397    6.0406   -0.0001 O.2     1  LIG1       -0.4473
     16 H          -1.6702    5.4395   -0.0001 H       1  LIG1        0.0669
     17 C          -1.2207    8.3705   -0.0002 C.1     1  LIG1       -0.0657
     18 C          -1.9790    9.3010   -0.0002 C.1     1  LIG1       -0.1138
     19 H          -2.6437   10.1332   -0.0001 H       1  LIG1        0.1232
     20 C           2.0156    8.3589   -0.0001 C.ar    1  LIG1        0.1732
     21 C           3.3744    8.3300   -0.0001 C.ar    1  LIG1        0.0035
     22 C           3.7866    9.7059   -0.0001 C.ar    1  LIG1        0.0741
     23 C           2.6310   10.4440   -0.0001 C.ar    1  LIG1        0.1860
     24 O           1.5636    9.6309   -0.0002 O.2     1  LIG1       -0.4473
     25 H           3.9999    7.4541   -0.0001 H       1  LIG1        0.0669
     26 C           5.1210   10.2213   -0.0001 C.1     1  LIG1       -0.0657
     27 C           6.2443   10.6488   -0.0001 C.1     1  LIG1       -0.1138
     28 H           7.2436   11.0182   -0.0001 H       1  LIG1        0.1232
     29 C           2.3956   11.8764   -0.0002 C.ar    1  LIG1        0.1721
     30 C           3.2406   12.9415   -0.0002 C.ar    1  LIG1        0.0027
     31 C           2.3903   14.1037   -0.0002 C.ar    1  LIG1        0.0630
     32 C           1.1123   13.6321   -0.0002 C.ar    1  LIG1        0.1081
     33 O           1.1091   12.2923   -0.0002 O.2     1  LIG1       -0.4585
     34 H           0.1579   14.1276   -0.0003 H       1  LIG1        0.1042
     35 H           4.3159   12.9171   -0.0002 H       1  LIG1        0.0669
     36 C           2.7898   15.4803   -0.0003 C.1     1  LIG1       -0.0665
     37 C           3.1309   16.6317   -0.0003 C.1     1  LIG1       -0.1138
     38 H           3.4359   17.6526   -0.0002 H       1  LIG1        0.1232
@<TRIPOS>BOND
     1    34    32    1
     2    37    36    3
     3    37    38    1
     4    36    31    1
     5    32    31   ar
     6    32    33   ar
     7    31    30   ar
     8    33    29   ar
     9    18    17    3
    10    18    19    1
    11    29    30   ar
    12    29    23    1
    13    30    35    1
    14    17    13    1
    15    24    23   ar
    16    24    20   ar
    17    23    22   ar
    18    13    12   ar
    19    13    14   ar
    20    16    12    1
    21    12    11   ar
    22    28    27    1
    23    20    14    1
    24    20    21   ar
    25    14    15   ar
    26    22    26    1
    27    22    21   ar
    28    26    27    3
    29    21    25    1
    30    11    15   ar
    31    11     4    1
    32     4     5   ar
    33     4     3   ar
    34     5     1   ar
    35     3     8    1
    36     3     2   ar
    37     8     9    3
    38     9    10    1
    39     1     6    1
    40     1     2   ar
    41     2     7    1
