@<TRIPOS>MOLECULE
mol_data/opt/m06hf/geoms/mol2/12ae12ae12ae12ae.out
 38 41 0 0 0
SMALL
GASTEIGER

@<TRIPOS>ATOM
      1 C           0.7438    1.5768   -0.0003 C.ar    1  LIG1        0.0939
      2 C           2.0866    1.7345   -0.0001 C.ar    1  LIG1       -0.0077
      3 C           2.3130    3.1588   -0.0000 C.ar    1  LIG1        0.0734
      4 C           1.0696    3.7300   -0.0002 C.ar    1  LIG1        0.1850
      5 O           0.1249    2.7779   -0.0004 O.2     1  LIG1       -0.4586
      6 H           0.1024    0.7142   -0.0005 H       1  LIG1        0.1030
      7 H           2.8417    0.9684   -0.0000 H       1  LIG1        0.0661
      8 C           3.5664    3.8471    0.0002 C.1     1  LIG1       -0.0658
      9 C           4.6238    4.4188    0.0004 C.1     1  LIG1       -0.1138
     10 H           5.5647    4.9187    0.0005 H       1  LIG1        0.1232
     11 C           0.6439    5.1179   -0.0002 C.ar    1  LIG1        0.1731
     12 C           1.3389    6.2865   -0.0001 C.ar    1  LIG1        0.0035
     13 C           0.3465    7.3252   -0.0002 C.ar    1  LIG1        0.0741
     14 C          -0.8660    6.6859   -0.0002 C.ar    1  LIG1        0.1860
     15 O          -0.6872    5.3567   -0.0002 O.2     1  LIG1       -0.4473
     16 H           2.4077    6.4062   -0.0001 H       1  LIG1        0.0669
     17 C           0.5587    8.7397   -0.0001 C.1     1  LIG1       -0.0657
     18 C           0.7398    9.9280   -0.0001 C.1     1  LIG1       -0.1138
     19 H           0.9076   10.9806   -0.0000 H       1  LIG1        0.1232
     20 C          -2.2226    7.1970   -0.0002 C.ar    1  LIG1        0.1732
     21 C          -2.7185    8.4633   -0.0003 C.ar    1  LIG1        0.0035
     22 C          -4.1473    8.3172   -0.0003 C.ar    1  LIG1        0.0741
     23 C          -4.3872    6.9677   -0.0003 C.ar    1  LIG1        0.1860
     24 O          -3.2284    6.2928   -0.0002 O.2     1  LIG1       -0.4473
     25 H          -2.1537    9.3789   -0.0003 H       1  LIG1        0.0669
     26 C          -5.1343    9.3531   -0.0003 C.1     1  LIG1       -0.0657
     27 C          -5.9639   10.2233   -0.0003 C.1     1  LIG1       -0.1138
     28 H          -6.6961   10.9980   -0.0004 H       1  LIG1        0.1232
     29 C          -5.6228    6.2054   -0.0002 C.ar    1  LIG1        0.1721
     30 C          -6.9287    6.5839   -0.0002 C.ar    1  LIG1        0.0027
     31 C          -7.6812    5.3556   -0.0002 C.ar    1  LIG1        0.0630
     32 C          -6.7599    4.3525   -0.0002 C.ar    1  LIG1        0.1081
     33 O          -5.5191    4.8579   -0.0002 O.2     1  LIG1       -0.4585
     34 H          -6.8538    3.2813   -0.0001 H       1  LIG1        0.1042
     35 H          -7.3110    7.5894   -0.0003 H       1  LIG1        0.0669
     36 C          -9.1063    5.2000   -0.0002 C.1     1  LIG1       -0.0665
     37 C         -10.3001    5.0700   -0.0003 C.1     1  LIG1       -0.1138
     38 H         -11.3588    4.9511   -0.0004 H       1  LIG1        0.1232
@<TRIPOS>BOND
     1     6     1    1
     2     5     1   ar
     3     5     4   ar
     4    38    37    1
     5    28    27    1
     6     1     2   ar
     7    27    26    3
     8    26    22    1
     9    25    21    1
    10    22    21   ar
    11    22    23   ar
    12    21    20   ar
    13    35    30    1
    14    37    36    3
    15    23    29    1
    16    23    24   ar
    17    20    24   ar
    18    20    14    1
    19    30    29   ar
    20    30    31   ar
    21    29    33   ar
    22    15    14   ar
    23    15    11   ar
    24    36    31    1
    25    31    32   ar
    26    14    13   ar
    27    33    32   ar
    28     4    11    1
    29     4     3   ar
    30    11    12   ar
    31    32    34    1
    32    13    12   ar
    33    13    17    1
    34    12    16    1
    35    17    18    3
    36     2     3   ar
    37     2     7    1
    38    18    19    1
    39     3     8    1
    40     8     9    3
    41     9    10    1
