@<TRIPOS>MOLECULE
mol_data/opt/m06hf/geoms/mol2/12ae4ad-12eh12fi.out
 44 47 0 0 0
SMALL
GASTEIGER

@<TRIPOS>ATOM
      1 C           0.7215    1.5993   -0.6482 C.ar    1  LIG1        0.0938
      2 C           1.9283    1.6419   -0.0431 C.ar    1  LIG1       -0.0078
      3 C           2.1517    3.0284    0.2876 C.ar    1  LIG1        0.0703
      4 C           1.0472    3.7087   -0.1534 C.ar    1  LIG1        0.1501
      5 O           0.1876    2.8372   -0.7169 O.2     1  LIG1       -0.4617
      6 H           0.1338    0.8021   -1.0673 H       1  LIG1        0.1030
      7 H           2.5959    0.8234    0.1601 H       1  LIG1        0.0661
      8 C           3.3043    3.5499    0.9596 C.1     1  LIG1       -0.0659
      9 C           4.2834    3.9540    1.5292 C.1     1  LIG1       -0.1138
     10 H           5.1514    4.3049    2.0384 H       1  LIG1        0.1232
     11 C           1.4993    6.1243    0.3121 C.ar    1  LIG1       -0.0503
     12 C           1.0803    7.4465    0.3301 C.ar    1  LIG1       -0.0491
     13 C           0.6354    5.1177   -0.1310 C.ar    1  LIG1        0.0197
     14 C          -0.1994    7.8024   -0.1013 C.ar    1  LIG1        0.0359
     15 H           1.7459    8.2193    0.6896 H       1  LIG1        0.0625
     16 C          -0.6451    5.4585   -0.5688 C.ar    1  LIG1       -0.0330
     17 C          -1.0566    6.7881   -0.5581 C.ar    1  LIG1        0.0631
     18 H          -1.3199    4.6942   -0.9278 H       1  LIG1        0.0638
     19 H           2.4938    5.8685    0.6508 H       1  LIG1        0.0625
     20 N          -3.4186    7.2418   -1.5371 N.1     1  LIG1       -0.1908
     21 C          -2.3775    7.0770   -1.0851 C.1     1  LIG1        0.0999
     22 C          -0.6079    9.2110   -0.0683 C.ar    1  LIG1        0.1542
     23 C           0.1084   10.3692   -0.2310 C.ar    1  LIG1        0.0918
     24 C          -0.8335   11.4521   -0.0745 C.ar    1  LIG1        0.0904
     25 C          -2.0373   10.8494    0.1614 C.ar    1  LIG1        0.1959
     26 O          -1.8926    9.4957    0.1611 O.2     1  LIG1       -0.4484
     27 C           1.4969   10.5332   -0.5269 C.1     1  LIG1       -0.0640
     28 C           2.6581   10.7217   -0.7763 C.1     1  LIG1       -0.1137
     29 H           3.6874   10.8788   -1.0017 H       1  LIG1        0.1232
     30 N          -0.5272   12.7963   -0.0978 N.pl3   1  LIG1       -0.3540
     31 H           0.3684   13.0104   -0.5124 H       1  LIG1        0.1425
     32 H          -1.2854   13.4040   -0.3862 H       1  LIG1        0.1425
     33 C          -3.3419   11.4404    0.3693 C.ar    1  LIG1        0.2129
     34 C          -3.8713   12.5788   -0.1525 C.ar    1  LIG1        0.1687
     35 C          -5.1669   12.7648    0.4393 C.ar    1  LIG1        0.0295
     36 C          -5.3130   11.6964    1.2618 C.ar    1  LIG1        0.0993
     37 O          -4.2244   10.8956    1.2322 O.2     1  LIG1       -0.4557
     38 H          -6.1172   11.3833    1.9044 H       1  LIG1        0.1033
     39 O          -3.2783   13.4171   -1.0679 O.3     1  LIG1       -0.5030
     40 H          -3.1973   12.9547   -1.9120 H       1  LIG1        0.2923
     41 C          -6.1173   13.8988    0.1632 C.3     1  LIG1       -0.0332
     42 H          -7.0204   13.7875    0.7617 H       1  LIG1        0.0280
     43 H          -6.3929   13.9128   -0.8916 H       1  LIG1        0.0280
     44 H          -5.6440   14.8501    0.4064 H       1  LIG1        0.0280
@<TRIPOS>BOND
     1    40    39    1
     2    20    21    3
     3    21    17    1
     4    39    34    1
     5     6     1    1
     6    29    28    1
     7    18    16    1
     8    43    41    1
     9    28    27    3
    10     5     1   ar
    11     5     4   ar
    12     1     2   ar
    13    16    17   ar
    14    16    13   ar
    15    17    14   ar
    16    27    23    1
    17    31    30    1
    18    32    30    1
    19    23    24   ar
    20    23    22   ar
    21     4    13    1
    22     4     3   ar
    23    34    33   ar
    24    34    35   ar
    25    13    11   ar
    26    14    22    1
    27    14    12   ar
    28    30    24    1
    29    24    25   ar
    30    22    26   ar
    31     2     7    1
    32     2     3   ar
    33    26    25   ar
    34    25    33    1
    35    41    44    1
    36    41    35    1
    37    41    42    1
    38     3     8    1
    39    11    12   ar
    40    11    19    1
    41    12    15    1
    42    33    37   ar
    43    35    36   ar
    44     8     9    3
    45    37    36   ar
    46    36    38    1
    47     9    10    1
