@<TRIPOS>MOLECULE
mol_data/opt/m06hf/geoms/mol2/12ae12ae12ae-12ae.out
 38 41 0 0 0
SMALL
GASTEIGER

@<TRIPOS>ATOM
      1 C           0.3414    1.6408    0.0009 C.ar    1  LIG1        0.0939
      2 C           1.6915    1.7038    0.0006 C.ar    1  LIG1       -0.0077
      3 C           2.0186    3.1084    0.0002 C.ar    1  LIG1        0.0734
      4 C           0.8190    3.7663    0.0003 C.ar    1  LIG1        0.1850
      5 O          -0.1914    2.8830    0.0008 O.2     1  LIG1       -0.4586
      6 H          -0.3583    0.8242    0.0013 H       1  LIG1        0.1030
      7 H           2.3903    0.8858    0.0006 H       1  LIG1        0.0661
      8 C           3.3162    3.7097   -0.0003 C.1     1  LIG1       -0.0658
      9 C           4.4082    4.2125   -0.0007 C.1     1  LIG1       -0.1138
     10 H           5.3799    4.6504   -0.0011 H       1  LIG1        0.1232
     11 C           0.4887    5.1800    0.0001 C.ar    1  LIG1        0.1731
     12 C           1.2540    6.3031   -0.0001 C.ar    1  LIG1        0.0035
     13 C           0.3298    7.4061   -0.0003 C.ar    1  LIG1        0.0741
     14 C          -0.9188    6.8435   -0.0002 C.ar    1  LIG1        0.1860
     15 O          -0.8255    5.5035   -0.0000 O.2     1  LIG1       -0.4473
     16 H           2.3284    6.3564   -0.0001 H       1  LIG1        0.0669
     17 C           0.6583    8.7991   -0.0005 C.1     1  LIG1       -0.0657
     18 C           0.9628    9.9609   -0.0007 C.1     1  LIG1       -0.1138
     19 H           1.2356   10.9910   -0.0015 H       1  LIG1        0.1232
     20 C          -2.2555    7.3980   -0.0004 C.ar    1  LIG1        0.1732
     21 C          -3.4818    6.8135   -0.0007 C.ar    1  LIG1        0.0035
     22 C          -4.4298    7.8961   -0.0008 C.ar    1  LIG1        0.0741
     23 C          -3.6812    9.0433   -0.0005 C.ar    1  LIG1        0.1860
     24 O          -2.3716    8.7431   -0.0003 O.2     1  LIG1       -0.4473
     25 H          -3.6986    5.7597   -0.0009 H       1  LIG1        0.0669
     26 C          -5.8569    7.7875   -0.0011 C.1     1  LIG1       -0.0657
     27 C          -7.0515    7.6674   -0.0012 C.1     1  LIG1       -0.1138
     28 H          -8.1116    7.5632   -0.0006 H       1  LIG1        0.1232
     29 C          -3.9999   10.4571   -0.0004 C.ar    1  LIG1        0.1721
     30 C          -3.1944   11.5505    0.0004 C.ar    1  LIG1        0.0027
     31 C          -4.0880   12.6800    0.0001 C.ar    1  LIG1        0.0630
     32 C          -5.3470   12.1600   -0.0009 C.ar    1  LIG1        0.1081
     33 O          -5.2997   10.8199   -0.0012 O.2     1  LIG1       -0.4585
     34 H          -6.3195   12.6183   -0.0014 H       1  LIG1        0.1042
     35 H          -2.1181   11.5591    0.0012 H       1  LIG1        0.0669
     36 C          -3.7420   14.0713    0.0007 C.1     1  LIG1       -0.0665
     37 C          -3.4485   15.2356    0.0011 C.1     1  LIG1       -0.1138
     38 H          -3.1890   16.2688    0.0014 H       1  LIG1        0.1232
@<TRIPOS>BOND
     1    19    18    1
     2    34    32    1
     3    27    26    3
     4    27    28    1
     5    33    32   ar
     6    33    29   ar
     7    10     9    1
     8    26    22    1
     9    25    21    1
    10    32    31   ar
    11    22    21   ar
    12    22    23   ar
    13     9     8    3
    14    18    17    3
    15    21    20   ar
    16    17    13    1
    17    23    29    1
    18    23    24   ar
    19    20    24   ar
    20    20    14    1
    21    29    30   ar
    22     8     3    1
    23    13    14   ar
    24    13    12   ar
    25    14    15   ar
    26    12    16    1
    27    12    11   ar
    28    15    11   ar
    29    11     4    1
    30    31    30   ar
    31    31    36    1
    32     3     4   ar
    33     3     2   ar
    34     4     5   ar
    35    30    35    1
    36     2     7    1
    37     2     1   ar
    38    36    37    3
    39     5     1   ar
    40     1     6    1
    41    37    38    1
