@<TRIPOS>MOLECULE
mol_data/opt/m06hf/geoms/mol2/12ae13dh6ed6lf13he6fh4fd6il.out
 100 107 0 0 0
SMALL
GASTEIGER

@<TRIPOS>ATOM
      1 C           0.9385    2.1574    1.9148 C.ar    1  LIG1        0.0939
      2 C           2.2487    2.1654    1.5871 C.ar    1  LIG1       -0.0078
      3 C           2.4112    3.2227    0.6167 C.ar    1  LIG1        0.0718
      4 C           1.1656    3.7523    0.4358 C.ar    1  LIG1        0.1675
      5 O           0.2733    3.1125    1.2242 O.2     1  LIG1       -0.4602
      6 H           0.3512    1.5593    2.5881 H       1  LIG1        0.1030
      7 H           3.0281    1.5294    1.9679 H       1  LIG1        0.0661
      8 C           3.6305    3.6643    0.0162 C.1     1  LIG1       -0.0658
      9 C           4.6548    4.0394   -0.4852 C.1     1  LIG1       -0.1138
     10 H           5.5486    4.3798   -0.9548 H       1  LIG1        0.1232
     11 C           0.6248    4.8452   -0.3571 C.ar    1  LIG1        0.1032
     12 C           1.0312    5.4627   -1.5360 C.ar    1  LIG1        0.1012
     13 C           0.0762    6.4730   -1.8385 C.ar    1  LIG1        0.0686
     14 C          -0.8830    6.4377   -0.8391 C.ar    1  LIG1        0.0719
     15 N          -0.5223    5.4369    0.0278 N.ar    1  LIG1       -0.3491
     16 H          -1.0615    5.1512    0.8348 H       1  LIG1        0.1661
     17 N           2.9367    4.9659   -3.1953 N.1     1  LIG1       -0.1907
     18 C           2.1168    5.1456   -2.4106 C.1     1  LIG1        0.1033
     19 N           0.1183    7.3425   -2.9401 N.pl3   1  LIG1       -0.3553
     20 H           0.9541    7.1997   -3.4974 H       1  LIG1        0.1424
     21 H          -0.7063    7.2656   -3.5282 H       1  LIG1        0.1424
     22 C          -3.1968    6.9580    0.0849 C.ar    1  LIG1        0.1230
     23 C          -2.0479    7.3104   -0.6510 C.ar    1  LIG1        0.0352
     24 C          -2.0379    8.5888   -1.2145 C.ar    1  LIG1       -0.0304
     25 C          -3.1368    9.4198   -1.0416 C.ar    1  LIG1        0.0785
     26 C          -4.2356    8.9762   -0.2857 C.ar    1  LIG1        0.0949
     27 N          -4.2392    7.7678    0.2595 N.ar    1  LIG1       -0.2363
     28 H          -1.1762    8.9191   -1.7829 H       1  LIG1        0.0638
     29 C          -3.3249    5.6548    0.7129 C.1     1  LIG1       -0.0491
     30 C          -3.4408    4.5768    1.2327 C.1     1  LIG1       -0.1124
     31 H          -3.5702    3.6177    1.6808 H       1  LIG1        0.1232
     32 N          -3.0962   11.7656   -2.1496 N.1     1  LIG1       -0.1908
     33 C          -3.1321   10.7317   -1.6539 C.1     1  LIG1        0.1013
     34 C          -6.7224    9.3721   -0.3796 C.ar    1  LIG1        0.2247
     35 C          -5.4278    9.8351   -0.0490 C.ar    1  LIG1        0.0666
     36 C          -5.3283   11.0874    0.5172 C.ar    1  LIG1       -0.0037
     37 C          -6.4746   11.8590    0.7797 C.ar    1  LIG1        0.1451
     38 C          -7.7012   11.3005    0.4238 C.ar    1  LIG1        0.1340
     39 N          -7.7934   10.0822   -0.1461 N.ar    1  LIG1       -0.2071
     40 H          -4.3696   11.5046    0.7994 H       1  LIG1        0.0663
     41 O          -6.8319    8.1729   -0.9752 O.3     1  LIG1       -0.4792
     42 C          -8.1493    7.7281   -1.2731 C.3     1  LIG1        0.0804
     43 H          -8.0232    6.7624   -1.7541 H       1  LIG1        0.0660
     44 H          -8.7301    7.6284   -0.3549 H       1  LIG1        0.0660
     45 H          -8.6468    8.4331   -1.9401 H       1  LIG1        0.0660
     46 O          -6.2987   13.0456    1.3744 O.3     1  LIG1       -0.5045
     47 H          -7.1429   13.5900    1.4269 H       1  LIG1        0.2922
     48 C          -9.0126   11.9409    0.6483 C.ar    1  LIG1        0.0913
     49 C          -9.4436   13.1856    1.0647 C.ar    1  LIG1        0.0680
     50 C         -10.8660   13.1648    1.0809 C.ar    1  LIG1        0.0713
     51 C         -11.2611   11.8924    0.6651 C.ar    1  LIG1        0.0695
     52 N         -10.1258   11.1985    0.4102 N.ar    1  LIG1       -0.3503
     53 H         -10.0787   10.2494    0.0534 H       1  LIG1        0.1660
     54 N          -8.6084   14.2992    1.3911 N.pl3   1  LIG1       -0.3553
     55 H          -8.6672   15.0174    0.6713 H       1  LIG1        0.1424
     56 H          -8.9011   14.7179    2.2716 H       1  LIG1        0.1424
     57 C         -11.6554   14.2986    1.4529 C.1     1  LIG1       -0.0657
     58 C         -12.2588   15.2893    1.7764 C.1     1  LIG1       -0.1138
     59 H         -12.7928   16.1676    2.0566 H       1  LIG1        0.1232
     60 C         -12.8189   10.0499   -0.0828 C.ar    1  LIG1        0.2224
     61 C         -12.6007   11.3060    0.5159 C.ar    1  LIG1        0.0627
     62 C         -13.7364   11.9606    0.9700 C.ar    1  LIG1       -0.0247
     63 C         -15.0156   11.4028    0.8358 C.ar    1  LIG1        0.0519
     64 C         -15.0979   10.1504    0.2139 C.ar    1  LIG1        0.0989
     65 N         -14.0030    9.5126   -0.2192 N.ar    1  LIG1       -0.2105
     66 H         -13.6312   12.9237    1.4533 H       1  LIG1        0.0645
     67 O         -11.7618    9.3294   -0.5481 O.3     1  LIG1       -0.4919
     68 H         -12.1200    8.5177   -0.9317 H       1  LIG1        0.2937
     69 N         -16.1293   12.0324    1.3905 N.pl3   1  LIG1       -0.3563
     70 H         -15.9250   12.9481    1.7661 H       1  LIG1        0.1424
     71 H         -16.9370   12.0433    0.7792 H       1  LIG1        0.1424
     72 C         -17.5513    9.8736   -0.4524 C.ar    1  LIG1        0.1267
     73 C         -18.6903    9.0758   -0.5641 C.ar    1  LIG1       -0.0105
     74 C         -16.3631    9.3669    0.0832 C.ar    1  LIG1        0.0449
     75 C         -18.6730    7.7467   -0.1600 C.ar    1  LIG1        0.0048
     76 H         -19.6081    9.4927   -0.9639 H       1  LIG1        0.0661
     77 C         -16.3428    8.0267    0.4633 C.ar    1  LIG1       -0.0310
     78 C         -17.4760    7.2261    0.3507 C.ar    1  LIG1        0.0604
     79 H         -15.4209    7.6104    0.8463 H       1  LIG1        0.0638
     80 O         -17.5645   11.1696   -0.8727 O.3     1  LIG1       -0.5061
     81 H         -18.3906   11.3773   -1.3231 H       1  LIG1        0.2922
     82 N         -17.3374    4.7427    1.0940 N.1     1  LIG1       -0.1908
     83 C         -17.4050    5.8384    0.7583 C.1     1  LIG1        0.0998
     84 C         -20.5968    6.4363    0.8146 C.ar    1  LIG1        0.0462
     85 C         -19.8999    6.9060   -0.3007 C.ar    1  LIG1        0.0079
     86 C         -20.3582    6.6008   -1.5878 C.ar    1  LIG1       -0.0090
     87 C         -21.4959    5.8183   -1.7158 C.ar    1  LIG1        0.1387
     88 C         -22.1306    5.3869   -0.5432 C.ar    1  LIG1        0.0695
     89 N         -21.6998    5.6911    0.6662 N.ar    1  LIG1       -0.2559
     90 H         -19.8087    6.9637   -2.4463 H       1  LIG1        0.0661
     91 H         -23.0215    4.7761   -0.6303 H       1  LIG1        0.0867
     92 C         -20.1726    6.7260    2.2398 C.3     1  LIG1       -0.0218
     93 H         -19.6467    7.6778    2.3130 H       1  LIG1        0.0293
     94 H         -19.5156    5.9300    2.5958 H       1  LIG1        0.0293
     95 H         -21.0668    6.7459    2.8595 H       1  LIG1        0.0293
     96 O         -22.0574    5.4287   -2.8843 O.3     1  LIG1       -0.4936
     97 C         -21.4246    5.8340   -4.0830 C.3     1  LIG1        0.0789
     98 H         -22.0163    5.4118   -4.8901 H       1  LIG1        0.0660
     99 H         -21.4140    6.9242   -4.1644 H       1  LIG1        0.0660
    100 H         -20.4039    5.4457   -4.1304 H       1  LIG1        0.0660
@<TRIPOS>BOND
     1    98    97    1
     2    99    97    1
     3   100    97    1
     4    97    96    1
     5    21    19    1
     6    20    19    1
     7    17    18    3
     8    19    13    1
     9    96    87    1
    10    90    86    1
    11    18    12    1
    12    32    33    3
    13    45    42    1
    14    13    12   ar
    15    13    14   ar
    16    28    24    1
    17    43    42    1
    18    87    86   ar
    19    87    88   ar
    20    33    25    1
    21    86    85   ar
    22    12    11   ar
    23    81    80    1
    24    42    41    1
    25    42    44    1
    26    24    25   ar
    27    24    23   ar
    28    25    26   ar
    29    41    34    1
    30    76    73    1
    31    10     9    1
    32    68    67    1
    33    80    72    1
    34    14    23    1
    35    14    15   ar
    36    23    22   ar
    37    91    88    1
    38    73    72   ar
    39    73    75   ar
    40    67    60    1
    41    88    89   ar
    42     9     8    3
    43    72    74   ar
    44    34    39   ar
    45    34    35   ar
    46    11    15   ar
    47    11     4    1
    48    85    75    1
    49    85    84   ar
    50    26    35    1
    51    26    27   ar
    52    65    60   ar
    53    65    64   ar
    54    75    78   ar
    55    39    38   ar
    56    60    61   ar
    57    35    36   ar
    58     8     3    1
    59    15    16    1
    60    53    52    1
    61    74    64    1
    62    74    77   ar
    63    22    27   ar
    64    22    29    1
    65    64    63   ar
    66    78    77   ar
    67    78    83    1
    68    52    48   ar
    69    52    51   ar
    70    38    48    1
    71    38    37   ar
    72     4     3   ar
    73     4     5   ar
    74    77    79    1
    75    61    51    1
    76    61    62   ar
    77    36    37   ar
    78    36    40    1
    79     3     2   ar
    80    48    49   ar
    81    51    50   ar
    82    89    84   ar
    83    55    54    1
    84    29    30    3
    85    83    82    3
    86    71    69    1
    87    37    46    1
    88    84    92    1
    89    63    62   ar
    90    63    69    1
    91    62    66    1
    92    49    50   ar
    93    49    54    1
    94    50    57    1
    95     5     1   ar
    96    30    31    1
    97    46    47    1
    98    69    70    1
    99    54    56    1
   100    57    58    3
   101     2     1   ar
   102     2     7    1
   103    58    59    1
   104     1     6    1
   105    92    93    1
   106    92    94    1
   107    92    95    1
