@<TRIPOS>MOLECULE
mol_data/opt/m06hf/geoms/mol2/12ae12ae-12ae12ae-.out
 38 41 0 0 0
SMALL
GASTEIGER

@<TRIPOS>ATOM
      1 C           0.1590    1.7183   -0.0001 C.ar    1  LIG1        0.0939
      2 C           1.5098    1.6926   -0.0000 C.ar    1  LIG1       -0.0077
      3 C           1.9338    3.0730   -0.0000 C.ar    1  LIG1        0.0734
      4 C           0.7806    3.8078   -0.0001 C.ar    1  LIG1        0.1850
      5 O          -0.2895    2.9947   -0.0001 O.2     1  LIG1       -0.4586
      6 H          -0.5935    0.9504   -0.0001 H       1  LIG1        0.1030
      7 H           2.1527    0.8301   -0.0000 H       1  LIG1        0.0661
      8 C           3.2803    3.5575   -0.0000 C.1     1  LIG1       -0.0658
      9 C           4.4225    3.9290   -0.0000 C.1     1  LIG1       -0.1138
     10 H           5.4361    4.2567    0.0001 H       1  LIG1        0.1232
     11 C           0.5150    5.2324   -0.0001 C.ar    1  LIG1        0.1731
     12 C          -0.6422    5.9445   -0.0001 C.ar    1  LIG1        0.0035
     13 C          -0.2490    7.3286   -0.0001 C.ar    1  LIG1        0.0741
     14 C           1.1210    7.3232   -0.0001 C.ar    1  LIG1        0.1860
     15 O           1.5812    6.0608   -0.0001 O.2     1  LIG1       -0.4473
     16 H          -1.6448    5.5550   -0.0001 H       1  LIG1        0.0669
     17 C          -1.1136    8.4690   -0.0002 C.1     1  LIG1       -0.0657
     18 C          -1.8626    9.4077   -0.0002 C.1     1  LIG1       -0.1138
     19 H          -2.5304   10.2378   -0.0001 H       1  LIG1        0.1232
     20 C           2.1231    8.3663   -0.0001 C.ar    1  LIG1        0.1732
     21 C           3.4804    8.3132   -0.0001 C.ar    1  LIG1        0.0035
     22 C           3.9232    9.6821   -0.0001 C.ar    1  LIG1        0.0741
     23 C           2.7820   10.4403   -0.0001 C.ar    1  LIG1        0.1860
     24 O           1.6970    9.6477   -0.0002 O.2     1  LIG1       -0.4473
     25 H           4.0905    7.4270   -0.0001 H       1  LIG1        0.0669
     26 C           5.2759   10.1487   -0.0001 C.1     1  LIG1       -0.0657
     27 C           6.4182   10.5179   -0.0001 C.1     1  LIG1       -0.1138
     28 H           7.4292   10.8527   -0.0003 H       1  LIG1        0.1232
     29 C           2.5225   11.8656   -0.0002 C.ar    1  LIG1        0.1721
     30 C           1.3547   12.5598   -0.0002 C.ar    1  LIG1        0.0027
     31 C           1.7382   13.9478   -0.0002 C.ar    1  LIG1        0.0630
     32 C           3.1009   13.9586   -0.0002 C.ar    1  LIG1        0.1081
     33 O           3.5786   12.7056   -0.0002 O.2     1  LIG1       -0.4585
     34 H           3.8187   14.7593   -0.0002 H       1  LIG1        0.1042
     35 H           0.3608   12.1478   -0.0002 H       1  LIG1        0.0669
     36 C           0.8812   15.0969   -0.0003 C.1     1  LIG1       -0.0665
     37 C           0.1613   16.0577   -0.0003 C.1     1  LIG1       -0.1138
     38 H          -0.4769   16.9106   -0.0003 H       1  LIG1        0.1232
@<TRIPOS>BOND
     1    38    37    1
     2    28    27    1
     3    37    36    3
     4    36    31    1
     5    31    30   ar
     6    31    32   ar
     7    35    30    1
     8    30    29   ar
     9    34    32    1
    10    32    33   ar
    11    29    33   ar
    12    29    23    1
    13    18    17    3
    14    18    19    1
    15    17    13    1
    16    24    23   ar
    17    24    20   ar
    18    23    22   ar
    19    13    12   ar
    20    13    14   ar
    21    16    12    1
    22    12    11   ar
    23    20    14    1
    24    20    21   ar
    25    14    15   ar
    26    22    26    1
    27    22    21   ar
    28    26    27    3
    29    21    25    1
    30    11    15   ar
    31    11     4    1
    32     5     4   ar
    33     5     1   ar
    34     4     3   ar
    35     6     1    1
    36     1     2   ar
    37     2     3   ar
    38     2     7    1
    39     3     8    1
    40     8     9    3
    41     9    10    1
