@<TRIPOS>MOLECULE
mol_data/opt/m06hf/geoms/mol2/12af12af-12af12af-.out
 34 37 0 0 0
SMALL
GASTEIGER

@<TRIPOS>ATOM
      1 C           0.2806    1.6503    0.0000 C.ar    1  LIG1        0.0964
      2 C           1.6339    1.7190   -0.0001 C.ar    1  LIG1        0.0185
      3 C           1.9430    3.1209   -0.0000 C.ar    1  LIG1        0.1657
      4 C           0.7467    3.7761   -0.0001 C.ar    1  LIG1        0.2109
      5 O          -0.2703    2.8793   -0.0001 O.2     1  LIG1       -0.4560
      6 H          -0.4043    0.8213    0.0001 H       1  LIG1        0.1031
      7 H           2.3391    0.9067   -0.0001 H       1  LIG1        0.0686
      8 O           3.1898    3.6336   -0.0000 O.3     1  LIG1       -0.5031
      9 H           3.1406    4.5985   -0.0000 H       1  LIG1        0.2923
     10 C           0.4487    5.1881   -0.0001 C.ar    1  LIG1        0.1780
     11 C          -0.7038    5.9082   -0.0001 C.ar    1  LIG1        0.0298
     12 C          -0.2917    7.2848   -0.0001 C.ar    1  LIG1        0.1665
     13 C           1.0703    7.2963   -0.0001 C.ar    1  LIG1        0.2119
     14 O           1.5243    6.0077   -0.0001 O.2     1  LIG1       -0.4447
     15 H          -1.7059    5.5139   -0.0001 H       1  LIG1        0.0693
     16 O          -1.0764    8.3861   -0.0001 O.3     1  LIG1       -0.5031
     17 H          -2.0032    8.1280   -0.0001 H       1  LIG1        0.2923
     18 C           2.0538    8.3544   -0.0001 C.ar    1  LIG1        0.1780
     19 C           3.4172    8.3312   -0.0001 C.ar    1  LIG1        0.0298
     20 C           3.8147    9.7064   -0.0001 C.ar    1  LIG1        0.1665
     21 C           2.6664   10.4434   -0.0002 C.ar    1  LIG1        0.2119
     22 O           1.5897    9.6180   -0.0002 O.2     1  LIG1       -0.4447
     23 H           4.0655    7.4729   -0.0001 H       1  LIG1        0.0693
     24 O           5.0927   10.1384   -0.0001 O.3     1  LIG1       -0.5031
     25 H           5.1023   11.1049   -0.0001 H       1  LIG1        0.2923
     26 C           2.4625   11.8725   -0.0002 C.ar    1  LIG1        0.1770
     27 C           1.3578   12.6617   -0.0002 C.ar    1  LIG1        0.0290
     28 C           1.8635   14.0111   -0.0003 C.ar    1  LIG1        0.1551
     29 C           3.2144   13.9357   -0.0002 C.ar    1  LIG1        0.1340
     30 O           3.5876   12.6212   -0.0002 O.2     1  LIG1       -0.4560
     31 H           3.9907   14.6767   -0.0003 H       1  LIG1        0.1068
     32 H           0.3342   12.3268   -0.0002 H       1  LIG1        0.0693
     33 O           1.1465   15.1651   -0.0003 O.3     1  LIG1       -0.5036
     34 H           0.2059   14.9651   -0.0003 H       1  LIG1        0.2923
@<TRIPOS>BOND
     1    34    33    1
     2    33    28    1
     3    31    29    1
     4    28    29   ar
     5    28    27   ar
     6    29    30   ar
     7    27    32    1
     8    27    26   ar
     9    30    26   ar
    10    26    21    1
    11    21    22   ar
    12    21    20   ar
    13    22    18   ar
    14    25    24    1
    15    18    13    1
    16    18    19   ar
    17    20    24    1
    18    20    19   ar
    19    13    12   ar
    20    13    14   ar
    21    17    16    1
    22    16    12    1
    23    12    11   ar
    24    11    15    1
    25    11    10   ar
    26    10    14   ar
    27    10     4    1
    28     7     2    1
    29     5     4   ar
    30     5     1   ar
    31    19    23    1
    32     4     3   ar
    33     2     3   ar
    34     2     1   ar
    35     3     8    1
    36     9     8    1
    37     1     6    1
