@<TRIPOS>MOLECULE
mol_data/opt/m06hf/geoms/mol2/12af12af12af-12af.out
 34 37 0 0 0
SMALL
GASTEIGER

@<TRIPOS>ATOM
      1 C           0.7511    1.6175    0.5943 C.ar    1  LIG1        0.0964
      2 C           1.9324    1.8063   -0.0445 C.ar    1  LIG1        0.0185
      3 C           1.9883    3.2133   -0.3160 C.ar    1  LIG1        0.1657
      4 C           0.8446    3.7536    0.1896 C.ar    1  LIG1        0.2109
      5 O           0.0832    2.7755    0.7393 O.2     1  LIG1       -0.4560
      6 H           0.2695    0.7396    0.9868 H       1  LIG1        0.1031
      7 H           2.6718    1.0699   -0.3052 H       1  LIG1        0.0686
      8 O           2.9975    3.8384   -0.9661 O.3     1  LIG1       -0.5031
      9 H           2.6930    4.6986   -1.2827 H       1  LIG1        0.2923
     10 C           0.4079    5.1360    0.2103 C.ar    1  LIG1        0.1780
     11 C           1.1334    6.2893    0.2929 C.ar    1  LIG1        0.0298
     12 C           0.1750    7.3492    0.1923 C.ar    1  LIG1        0.1665
     13 C          -1.0465    6.7524    0.0711 C.ar    1  LIG1        0.2119
     14 O          -0.9056    5.4031    0.0717 O.2     1  LIG1       -0.4447
     15 H           2.1918    6.3868    0.4668 H       1  LIG1        0.0693
     16 O           0.4742    8.6627    0.2305 O.3     1  LIG1       -0.5031
     17 H          -0.3403    9.1792    0.1718 H       1  LIG1        0.2923
     18 C          -2.3614    7.3352   -0.0428 C.ar    1  LIG1        0.1780
     19 C          -3.6089    6.8295   -0.2259 C.ar    1  LIG1        0.0298
     20 C          -4.4805    7.9729   -0.2638 C.ar    1  LIG1        0.1665
     21 C          -3.7006    9.0773   -0.1041 C.ar    1  LIG1        0.2119
     22 O          -2.3997    8.6850    0.0349 O.2     1  LIG1       -0.4447
     23 H          -3.8703    5.7888   -0.3208 H       1  LIG1        0.0693
     24 O          -5.8233    7.9893   -0.4213 O.3     1  LIG1       -0.5031
     25 H          -6.1510    7.0946   -0.5530 H       1  LIG1        0.2923
     26 C          -3.9741   10.4976   -0.0410 C.ar    1  LIG1        0.1770
     27 C          -3.1662   11.5634    0.2109 C.ar    1  LIG1        0.0290
     28 C          -4.0290   12.7067    0.1353 C.ar    1  LIG1        0.1551
     29 C          -5.2730   12.2464   -0.1500 C.ar    1  LIG1        0.1340
     30 O          -5.2385   10.8935   -0.2608 O.2     1  LIG1       -0.4560
     31 H          -6.2236   12.7252   -0.2981 H       1  LIG1        0.1068
     32 H          -2.1128   11.5651    0.4291 H       1  LIG1        0.0693
     33 O          -3.5890   13.9771    0.3325 O.3     1  LIG1       -0.5036
     34 H          -4.3138   14.6025    0.2306 H       1  LIG1        0.2923
@<TRIPOS>BOND
     1     9     8    1
     2     8     3    1
     3    25    24    1
     4    24    20    1
     5    23    19    1
     6     3     2   ar
     7     3     4   ar
     8     7     2    1
     9    31    29    1
    10    20    19   ar
    11    20    21   ar
    12    30    29   ar
    13    30    26   ar
    14    19    18   ar
    15    29    28   ar
    16    21    26    1
    17    21    22   ar
    18     2     1   ar
    19    18    22   ar
    20    18    13    1
    21    26    27   ar
    22    13    14   ar
    23    13    12   ar
    24    14    10   ar
    25    28    27   ar
    26    28    33    1
    27    17    16    1
    28     4    10    1
    29     4     5   ar
    30    12    16    1
    31    12    11   ar
    32    10    11   ar
    33    27    32    1
    34    34    33    1
    35    11    15    1
    36     1     5   ar
    37     1     6    1
