@<TRIPOS>MOLECULE
mol_data/opt/m06hf/geoms/mol2/12af12af-12af-12af-.out
 34 37 0 0 0
SMALL
GASTEIGER

@<TRIPOS>ATOM
      1 C          -0.0549    1.6764   -0.0000 C.ar    1  LIG1        0.0964
      2 C           1.3002    1.6643   -0.0001 C.ar    1  LIG1        0.0185
      3 C           1.6942    3.0459   -0.0001 C.ar    1  LIG1        0.1657
      4 C           0.5373    3.7696   -0.0001 C.ar    1  LIG1        0.2109
      5 O          -0.5322    2.9361   -0.0001 O.2     1  LIG1       -0.4560
      6 H          -0.7885    0.8897    0.0000 H       1  LIG1        0.1031
      7 H           1.9562    0.8116   -0.0001 H       1  LIG1        0.0686
      8 O           2.9700    3.4751   -0.0001 O.3     1  LIG1       -0.5031
      9 H           3.0013    4.4419   -0.0000 H       1  LIG1        0.2923
     10 C           0.3394    5.1980   -0.0001 C.ar    1  LIG1        0.1780
     11 C          -0.7485    6.0157   -0.0001 C.ar    1  LIG1        0.0298
     12 C          -0.2132    7.3479   -0.0001 C.ar    1  LIG1        0.1665
     13 C           1.1433    7.2392   -0.0001 C.ar    1  LIG1        0.2119
     14 O           1.4800    5.9200   -0.0001 O.2     1  LIG1       -0.4447
     15 H          -1.7807    5.7096   -0.0001 H       1  LIG1        0.0693
     16 O          -0.8758    8.5310   -0.0001 O.3     1  LIG1       -0.5031
     17 H          -1.8261    8.3797   -0.0001 H       1  LIG1        0.2923
     18 C           2.2013    8.2225   -0.0001 C.ar    1  LIG1        0.1780
     19 C           2.1778    9.5860   -0.0002 C.ar    1  LIG1        0.0298
     20 C           3.5558    9.9754   -0.0002 C.ar    1  LIG1        0.1665
     21 C           4.2961    8.8317   -0.0001 C.ar    1  LIG1        0.2119
     22 O           3.4639    7.7602   -0.0001 O.2     1  LIG1       -0.4447
     23 H           1.2980   10.2077   -0.0002 H       1  LIG1        0.0693
     24 O           4.0911   11.2238   -0.0002 O.3     1  LIG1       -0.5031
     25 H           3.3913   11.8842   -0.0002 H       1  LIG1        0.2923
     26 C           5.7291    8.6218   -0.0001 C.ar    1  LIG1        0.1770
     27 C           6.7641    9.5076   -0.0002 C.ar    1  LIG1        0.0290
     28 C           7.9468    8.6908   -0.0001 C.ar    1  LIG1        0.1551
     29 C           7.5366    7.3990   -0.0001 C.ar    1  LIG1        0.1340
     30 O           6.1794    7.3573   -0.0001 O.2     1  LIG1       -0.4560
     31 H           8.0643    6.4642   -0.0001 H       1  LIG1        0.1068
     32 H           6.6819   10.5819   -0.0002 H       1  LIG1        0.0693
     33 O           9.2452    9.0984   -0.0001 O.3     1  LIG1       -0.5036
     34 H           9.2847   10.0590   -0.0001 H       1  LIG1        0.2923
@<TRIPOS>BOND
     1    25    24    1
     2    24    20    1
     3    23    19    1
     4    32    27    1
     5    20    19   ar
     6    20    21   ar
     7    19    18   ar
     8    27    26   ar
     9    27    28   ar
    10    34    33    1
    11    21    26    1
    12    21    22   ar
    13    18    22   ar
    14    18    13    1
    15    33    28    1
    16    26    30   ar
    17    28    29   ar
    18     7     2    1
    19    13    12   ar
    20    13    14   ar
    21    16    12    1
    22    16    17    1
    23    12    11   ar
    24    30    29   ar
    25    14    10   ar
    26     2     3   ar
    27     2     1   ar
    28    11    10   ar
    29    11    15    1
    30    29    31    1
    31    10     4    1
    32     4     5   ar
    33     4     3   ar
    34     5     1   ar
    35     3     8    1
    36     8     9    1
    37     1     6    1
