@<TRIPOS>MOLECULE
mol_data/opt/m06hf/geoms/mol2/12af12af.out
 18 19 0 0 0
SMALL
GASTEIGER

@<TRIPOS>ATOM
      1 C           0.2180    1.7694   -0.0001 C.ar    1  LIG1        0.0964
      2 C           1.5725    1.7920    0.0001 C.ar    1  LIG1        0.0185
      3 C           1.9257    3.1819   -0.0000 C.ar    1  LIG1        0.1657
      4 C           0.7561    3.8847   -0.0001 C.ar    1  LIG1        0.2108
      5 O          -0.2849    3.0147   -0.0000 O.2     1  LIG1       -0.4560
      6 H          -0.4989    0.9673   -0.0001 H       1  LIG1        0.1031
      7 H           2.2537    0.9599    0.0001 H       1  LIG1        0.0686
      8 O           3.2072    3.6196   -0.0001 O.3     1  LIG1       -0.5031
      9 H           3.2426    4.5802   -0.0002 H       1  LIG1        0.2923
     10 C           0.4484    5.3075   -0.0001 C.ar    1  LIG1        0.1769
     11 C           1.2197    6.4320   -0.0000 C.ar    1  LIG1        0.0290
     12 C           0.2916    7.5264   -0.0001 C.ar    1  LIG1        0.1551
     13 C          -0.9525    6.9887   -0.0002 C.ar    1  LIG1        0.1340
     14 O          -0.8546    5.6348   -0.0002 O.2     1  LIG1       -0.4560
     15 H          -1.9427    7.4072   -0.0003 H       1  LIG1        0.1068
     16 H           2.2911    6.5334    0.0001 H       1  LIG1        0.0693
     17 O           0.6869    8.8262   -0.0001 O.3     1  LIG1       -0.5036
     18 H          -0.0798    9.4084   -0.0001 H       1  LIG1        0.2923
@<TRIPOS>BOND
     1    15    13    1
     2    13    14   ar
     3    13    12   ar
     4    14    10   ar
     5     9     8    1
     6    18    17    1
     7    12    17    1
     8    12    11   ar
     9     6     1    1
    10    10     4    1
    11    10    11   ar
    12     1     5   ar
    13     1     2   ar
    14     8     3    1
    15     4     3   ar
    16     4     5   ar
    17     3     2   ar
    18    11    16    1
    19     2     7    1
