@<TRIPOS>MOLECULE
mol_data/opt/m06hf/geoms/mol2/12af12af-12af12af.out
 34 37 0 0 0
SMALL
GASTEIGER

@<TRIPOS>ATOM
      1 C           0.2905    1.6508   -0.0000 C.ar    1  LIG1        0.0964
      2 C           1.6436    1.7240   -0.0001 C.ar    1  LIG1        0.0185
      3 C           1.9478    3.1271   -0.0001 C.ar    1  LIG1        0.1657
      4 C           0.7495    3.7782   -0.0001 C.ar    1  LIG1        0.2109
      5 O          -0.2644    2.8779   -0.0001 O.2     1  LIG1       -0.4560
      6 H          -0.3918    0.8196    0.0000 H       1  LIG1        0.1031
      7 H           2.3513    0.9140   -0.0002 H       1  LIG1        0.0686
      8 O           3.1928    3.6447   -0.0000 O.3     1  LIG1       -0.5031
      9 H           3.1386    4.6095   -0.0000 H       1  LIG1        0.2923
     10 C           0.4473    5.1895   -0.0001 C.ar    1  LIG1        0.1780
     11 C          -0.7071    5.9062   -0.0001 C.ar    1  LIG1        0.0298
     12 C          -0.2994    7.2843   -0.0001 C.ar    1  LIG1        0.1665
     13 C           1.0626    7.2996   -0.0001 C.ar    1  LIG1        0.2119
     14 O           1.5208    6.0118   -0.0001 O.2     1  LIG1       -0.4447
     15 H          -1.7082    5.5093   -0.0001 H       1  LIG1        0.0693
     16 O          -1.0848    8.3827   -0.0001 O.3     1  LIG1       -0.5031
     17 H          -2.0120    8.1268   -0.0001 H       1  LIG1        0.2923
     18 C           2.0454    8.3590   -0.0001 C.ar    1  LIG1        0.1780
     19 C           3.4082    8.3323   -0.0000 C.ar    1  LIG1        0.0298
     20 C           3.8063    9.7048   -0.0001 C.ar    1  LIG1        0.1665
     21 C           2.6629   10.4524   -0.0001 C.ar    1  LIG1        0.2119
     22 O           1.5881    9.6212   -0.0002 O.2     1  LIG1       -0.4447
     23 H           4.0582    7.4754    0.0000 H       1  LIG1        0.0693
     24 O           5.1016   10.0976   -0.0000 O.3     1  LIG1       -0.5031
     25 H           5.1703   11.0567    0.0000 H       1  LIG1        0.2923
     26 C           2.4117   11.8837   -0.0002 C.ar    1  LIG1        0.1770
     27 C           3.2286   12.9767   -0.0002 C.ar    1  LIG1        0.0290
     28 C           2.3454   14.1067   -0.0003 C.ar    1  LIG1        0.1551
     29 C           1.0802   13.6191   -0.0003 C.ar    1  LIG1        0.1340
     30 O           1.1237   12.2630   -0.0002 O.2     1  LIG1       -0.4560
     31 H           0.1081   14.0782   -0.0003 H       1  LIG1        0.1068
     32 H           4.3034   13.0361   -0.0002 H       1  LIG1        0.0693
     33 O           2.7916   15.3900   -0.0004 O.3     1  LIG1       -0.5036
     34 H           2.0474   16.0008   -0.0004 H       1  LIG1        0.2923
@<TRIPOS>BOND
     1    34    33    1
     2    33    28    1
     3    31    29    1
     4    28    29   ar
     5    28    27   ar
     6    29    30   ar
     7    32    27    1
     8    27    26   ar
     9    30    26   ar
    10    26    21    1
    11     7     2    1
    12    22    21   ar
    13    22    18   ar
    14     5     4   ar
    15     5     1   ar
    16     2     3   ar
    17     2     1   ar
    18    21    20   ar
    19    15    11    1
    20    11    10   ar
    21    11    12   ar
    22    17    16    1
    23    10     4    1
    24    10    14   ar
    25     4     3   ar
    26    12    16    1
    27    12    13   ar
    28    13    18    1
    29    13    14   ar
    30    18    19   ar
    31     3     8    1
    32    20    19   ar
    33    20    24    1
    34    19    23    1
    35     8     9    1
    36     1     6    1
    37    24    25    1
