@<TRIPOS>MOLECULE
mol_data/opt/m06hf/geoms/mol2/12af12af12af.out
 26 28 0 0 0
SMALL
GASTEIGER

@<TRIPOS>ATOM
      1 C           0.3719    1.6809    0.0001 C.ar    1  LIG1        0.0964
      2 C           1.7254    1.7508   -0.0000 C.ar    1  LIG1        0.0185
      3 C           2.0290    3.1517   -0.0001 C.ar    1  LIG1        0.1657
      4 C           0.8345    3.8123   -0.0000 C.ar    1  LIG1        0.2109
      5 O          -0.1752    2.9068    0.0000 O.2     1  LIG1       -0.4560
      6 H          -0.3141    0.8524    0.0002 H       1  LIG1        0.1031
      7 H           2.4357    0.9428   -0.0001 H       1  LIG1        0.0686
      8 O           3.2938    3.6343   -0.0002 O.3     1  LIG1       -0.5031
      9 H           3.2976    4.5953   -0.0002 H       1  LIG1        0.2923
     10 C           0.4823    5.2214   -0.0001 C.ar    1  LIG1        0.1780
     11 C           1.2229    6.3679   -0.0000 C.ar    1  LIG1        0.0298
     12 C           0.2709    7.4343   -0.0001 C.ar    1  LIG1        0.1665
     13 C          -0.9672    6.8613   -0.0002 C.ar    1  LIG1        0.2119
     14 O          -0.8288    5.5103   -0.0001 O.2     1  LIG1       -0.4447
     15 H           2.2906    6.5023    0.0001 H       1  LIG1        0.0693
     16 O           0.6333    8.7378   -0.0001 O.3     1  LIG1       -0.5031
     17 H          -0.1380    9.3119   -0.0003 H       1  LIG1        0.2923
     18 C          -2.3149    7.4052   -0.0002 C.ar    1  LIG1        0.1770
     19 C          -2.8070    8.6775   -0.0001 C.ar    1  LIG1        0.0290
     20 C          -4.2338    8.5286   -0.0002 C.ar    1  LIG1        0.1551
     21 C          -4.4919    7.1981   -0.0005 C.ar    1  LIG1        0.1340
     22 O          -3.3197    6.5144   -0.0005 O.2     1  LIG1       -0.4560
     23 H          -5.3966    6.6179   -0.0007 H       1  LIG1        0.1068
     24 H          -2.2876    9.6204    0.0002 H       1  LIG1        0.0693
     25 O          -5.0818    9.5895   -0.0001 O.3     1  LIG1       -0.5036
     26 H          -5.9959    9.2880   -0.0002 H       1  LIG1        0.2923
@<TRIPOS>BOND
     1    23    21    1
     2    21    22   ar
     3    21    20   ar
     4    22    18   ar
     5    17    16    1
     6    26    25    1
     7    20    25    1
     8    20    19   ar
     9     9     8    1
    10    18    13    1
    11    18    19   ar
    12     8     3    1
    13    13    14   ar
    14    13    12   ar
    15    14    10   ar
    16    16    12    1
    17    12    11   ar
    18     3     2   ar
    19     3     4   ar
    20     7     2    1
    21    10     4    1
    22    10    11   ar
    23    19    24    1
    24     2     1   ar
    25     4     5   ar
    26    11    15    1
    27     5     1   ar
    28     1     6    1
