@<TRIPOS>MOLECULE
mol_data/opt/m06hf/geoms/mol2/12af12id-13fe4fd-.out
 44 47 0 0 0
SMALL
GASTEIGER

@<TRIPOS>ATOM
      1 C           0.7625    1.7987    1.1067 C.ar    1  LIG1        0.0964
      2 C           1.7554    1.8079    0.1840 C.ar    1  LIG1        0.0185
      3 C           1.8164    3.1632   -0.2820 C.ar    1  LIG1        0.1657
      4 C           0.8685    3.8581    0.4052 C.ar    1  LIG1        0.2110
      5 O           0.2196    3.0196    1.2549 O.2     1  LIG1       -0.4560
      6 H           0.3461    1.0162    1.7164 H       1  LIG1        0.1031
      7 H           2.3637    0.9841   -0.1449 H       1  LIG1        0.0686
      8 O           2.6651    3.6170   -1.2329 O.3     1  LIG1       -0.5031
      9 H           2.3904    4.5000   -1.5130 H       1  LIG1        0.2923
     10 C           0.5228    5.2661    0.3352 C.ar    1  LIG1        0.1784
     11 C           1.3057    6.3748    0.2990 C.ar    1  LIG1        0.0166
     12 C           0.3904    7.4825    0.1284 C.ar    1  LIG1        0.1026
     13 C          -0.8703    6.9506    0.0900 C.ar    1  LIG1        0.1731
     14 O          -0.7916    5.6125    0.2052 O.2     1  LIG1       -0.4484
     15 C           2.7995    6.4778    0.4582 C.3     1  LIG1       -0.0348
     16 H           3.0291    7.1649    1.2730 H       1  LIG1        0.0279
     17 H           3.2542    6.8717   -0.4525 H       1  LIG1        0.0279
     18 H           3.2206    5.4979    0.6808 H       1  LIG1        0.0279
     19 N           1.2260    9.9195    0.0366 N.1     1  LIG1       -0.1907
     20 C           0.8031    8.8528    0.0680 C.1     1  LIG1        0.1033
     21 C          -2.2088    7.4753   -0.0398 C.ar    1  LIG1        0.1271
     22 C          -2.6932    8.7443   -0.2753 C.ar    1  LIG1        0.1611
     23 C          -4.1126    8.6686   -0.3029 C.ar    1  LIG1        0.0921
     24 C          -4.4501    7.3371   -0.0850 C.ar    1  LIG1        0.0698
     25 N          -3.3007    6.6419    0.0629 N.ar    1  LIG1       -0.3477
     26 H          -3.2352    5.6627    0.3012 H       1  LIG1        0.1661
     27 O          -1.9403    9.8409   -0.4666 O.3     1  LIG1       -0.5034
     28 H          -2.5140   10.6005   -0.6317 H       1  LIG1        0.2923
     29 C          -4.9507    9.7883   -0.5933 C.1     1  LIG1       -0.0638
     30 C          -5.5833   10.7757   -0.8617 C.1     1  LIG1       -0.1137
     31 H          -6.1568   11.6398   -1.1055 H       1  LIG1        0.1232
     32 C          -6.8241    7.1891    0.6923 C.ar    1  LIG1        0.1260
     33 C          -8.0606    6.5418    0.7108 C.ar    1  LIG1       -0.0183
     34 C          -5.7614    6.6639   -0.0620 C.ar    1  LIG1        0.0422
     35 C          -8.2456    5.3671   -0.0024 C.ar    1  LIG1       -0.0409
     36 H          -8.8727    6.9556    1.2963 H       1  LIG1        0.0655
     37 C          -5.9574    5.4867   -0.7770 C.ar    1  LIG1       -0.0317
     38 C          -7.1905    4.8355   -0.7441 C.ar    1  LIG1        0.0526
     39 H          -5.1544    5.0864   -1.3830 H       1  LIG1        0.0638
     40 H          -9.2009    4.8610    0.0125 H       1  LIG1        0.0631
     41 O          -6.5866    8.3114    1.3966 O.3     1  LIG1       -0.5061
     42 H          -7.3803    8.6250    1.8426 H       1  LIG1        0.2922
     43 N          -7.5257    2.6389   -2.0840 N.1     1  LIG1       -0.1909
     44 C          -7.3776    3.6114   -1.4931 C.1     1  LIG1        0.0992
@<TRIPOS>BOND
     1    43    44    3
     2     9     8    1
     3    44    38    1
     4    39    37    1
     5     8     3    1
     6    31    30    1
     7    30    29    3
     8    37    38   ar
     9    37    34   ar
    10    38    35   ar
    11    28    27    1
    12    29    23    1
    13    27    22    1
    14    17    15    1
    15    23    22   ar
    16    23    24   ar
    17     3     2   ar
    18     3     4   ar
    19    22    21   ar
    20     7     2    1
    21    24    34    1
    22    24    25   ar
    23    34    32   ar
    24    21    25   ar
    25    21    13    1
    26    35    40    1
    27    35    33   ar
    28    19    20    3
    29    25    26    1
    30    20    12    1
    31    13    12   ar
    32    13    14   ar
    33    12    11   ar
    34     2     1   ar
    35    14    10   ar
    36    11    10   ar
    37    11    15    1
    38    10     4    1
    39     4     5   ar
    40    15    18    1
    41    15    16    1
    42    32    33   ar
    43    32    41    1
    44    33    36    1
    45     1     5   ar
    46     1     6    1
    47    41    42    1
