@<TRIPOS>MOLECULE
mol_data/opt/m06hf/geoms/mol2/12af12ad-13ld-12ad-.out
 39 42 0 0 0
SMALL
GASTEIGER

@<TRIPOS>ATOM
      1 C           0.7127    1.3266    0.4756 C.ar    1  LIG1        0.0964
      2 C           1.8838    1.4438   -0.1964 C.ar    1  LIG1        0.0185
      3 C           2.0605    2.8534   -0.3966 C.ar    1  LIG1        0.1657
      4 C           0.9888    3.4649    0.1790 C.ar    1  LIG1        0.2108
      5 O           0.1594    2.5299    0.7094 O.2     1  LIG1       -0.4560
      6 H           0.1673    0.4746    0.8412 H       1  LIG1        0.1031
      7 H           2.5441    0.6605   -0.5235 H       1  LIG1        0.0686
      8 O           3.1040    3.4097   -1.0495 O.3     1  LIG1       -0.5031
      9 H           2.9124    4.3343   -1.2514 H       1  LIG1        0.2923
     10 C           0.6654    4.8754    0.2789 C.ar    1  LIG1        0.1756
     11 C           1.4447    5.9646    0.5021 C.ar    1  LIG1        0.0055
     12 C           0.5685    7.1030    0.3996 C.ar    1  LIG1        0.0997
     13 C          -0.6763    6.6060    0.1280 C.ar    1  LIG1        0.1728
     14 O          -0.6168    5.2645    0.0484 O.2     1  LIG1       -0.4487
     15 H           2.4898    5.9752    0.7621 H       1  LIG1        0.0670
     16 N           1.2522    9.5430    0.8816 N.1     1  LIG1       -0.1907
     17 C           0.9233    8.4689    0.6461 C.1     1  LIG1        0.1030
     18 C          -1.9817    7.2008   -0.0600 C.ar    1  LIG1        0.1274
     19 C          -2.3416    8.4875   -0.4054 C.ar    1  LIG1        0.1663
     20 C          -3.7650    8.5159   -0.4652 C.ar    1  LIG1        0.1222
     21 C          -4.2113    7.2337   -0.1696 C.ar    1  LIG1        0.1039
     22 N          -3.1314    6.4608    0.0615 N.ar    1  LIG1       -0.3453
     23 H          -3.1642    5.4776    0.2950 H       1  LIG1        0.1662
     24 O          -1.4696    9.4676   -0.6954 O.3     1  LIG1       -0.4916
     25 C          -1.5986   10.6725    0.0738 C.3     1  LIG1        0.0789
     26 H          -0.7599   11.2956   -0.2198 H       1  LIG1        0.0660
     27 H          -2.5428   11.1660   -0.1567 H       1  LIG1        0.0660
     28 H          -1.5310   10.4359    1.1358 H       1  LIG1        0.0660
     29 N          -5.3076   10.4885   -1.0767 N.1     1  LIG1       -0.1907
     30 C          -4.6088    9.6169   -0.8092 C.1     1  LIG1        0.1051
     31 C          -5.5624    6.7030   -0.0918 C.ar    1  LIG1        0.1535
     32 C          -6.7936    7.2470   -0.2619 C.ar    1  LIG1        0.0031
     33 C          -7.7116    6.1612   -0.0333 C.ar    1  LIG1        0.0900
     34 C          -6.9623    5.0637    0.2523 C.ar    1  LIG1        0.1100
     35 O          -5.6615    5.3854    0.2178 O.2     1  LIG1       -0.4601
     36 H          -7.2182    4.0456    0.4865 H       1  LIG1        0.1043
     37 H          -7.0332    8.2666   -0.5136 H       1  LIG1        0.0669
     38 N         -10.2911    6.2338   -0.1336 N.1     1  LIG1       -0.1908
     39 C          -9.1458    6.2011   -0.0895 C.1     1  LIG1        0.1023
@<TRIPOS>BOND
     1     9     8    1
     2    29    30    3
     3     8     3    1
     4    30    20    1
     5    24    19    1
     6    24    25    1
     7     7     2    1
     8    37    32    1
     9    20    19   ar
    10    20    21   ar
    11    19    18   ar
    12     3     2   ar
    13     3     4   ar
    14    32    31   ar
    15    32    33   ar
    16    26    25    1
    17     2     1   ar
    18    21    31    1
    19    21    22   ar
    20    27    25    1
    21    38    39    3
    22    31    35   ar
    23    39    33    1
    24    18    22   ar
    25    18    13    1
    26    33    34   ar
    27    14    13   ar
    28    14    10   ar
    29    22    23    1
    30    25    28    1
    31    13    12   ar
    32     4    10    1
    33     4     5   ar
    34    35    34   ar
    35    34    36    1
    36    10    11   ar
    37    12    11   ar
    38    12    17    1
    39     1     5   ar
    40     1     6    1
    41    11    15    1
    42    17    16    3
