@<TRIPOS>MOLECULE
mol_data/opt/m06hf/geoms/mol2/12af12af-.out
 18 19 0 0 0
SMALL
GASTEIGER

@<TRIPOS>ATOM
      1 C           0.2227    1.7550   -0.0001 C.ar    1  LIG1        0.0964
      2 C           1.5770    1.7920    0.0001 C.ar    1  LIG1        0.0185
      3 C           1.9187    3.1871   -0.0000 C.ar    1  LIG1        0.1657
      4 C           0.7393    3.8703   -0.0001 C.ar    1  LIG1        0.2108
      5 O          -0.2979    2.9974   -0.0000 O.2     1  LIG1       -0.4560
      6 H          -0.4844    0.9446   -0.0002 H       1  LIG1        0.1031
      7 H           2.2633    0.9639    0.0002 H       1  LIG1        0.0686
      8 O           3.1775    3.6734   -0.0000 O.3     1  LIG1       -0.5031
      9 H           3.1447    4.6393   -0.0001 H       1  LIG1        0.2923
     10 C           0.4817    5.2936   -0.0001 C.ar    1  LIG1        0.1769
     11 C          -0.6445    6.0512   -0.0001 C.ar    1  LIG1        0.0290
     12 C          -0.1774    7.4154   -0.0001 C.ar    1  LIG1        0.1551
     13 C           1.1746    7.3779   -0.0002 C.ar    1  LIG1        0.1340
     14 O           1.5839    6.0751   -0.0001 O.2     1  LIG1       -0.4560
     15 H           1.9306    8.1393   -0.0002 H       1  LIG1        0.1068
     16 H          -1.6597    5.6910   -0.0000 H       1  LIG1        0.0693
     17 O          -0.9227    8.5509   -0.0002 O.3     1  LIG1       -0.5036
     18 H          -1.8589    8.3305   -0.0001 H       1  LIG1        0.2923
@<TRIPOS>BOND
     1     6     1    1
     2    15    13    1
     3    13    14   ar
     4    13    12   ar
     5    17    12    1
     6    17    18    1
     7     1     5   ar
     8     1     2   ar
     9    14    10   ar
    10    12    11   ar
    11     9     8    1
    12    10    11   ar
    13    10     4    1
    14    11    16    1
    15     4     3   ar
    16     4     5   ar
    17     8     3    1
    18     3     2   ar
    19     2     7    1
