@<TRIPOS>MOLECULE
mol_data/opt/m06hf/geoms/mol2/12af6ea13da4ff.out
 42 45 0 0 0
SMALL
GASTEIGER

@<TRIPOS>ATOM
      1 C           0.5619    1.6885   -0.8455 C.ar    1  LIG1        0.0962
      2 C           1.6288    1.6894   -0.0088 C.ar    1  LIG1        0.0184
      3 C           1.7813    3.0561    0.3940 C.ar    1  LIG1        0.1627
      4 C           0.8004    3.7686   -0.2321 C.ar    1  LIG1        0.1786
      5 O           0.0520    2.9235   -0.9824 O.2     1  LIG1       -0.4591
      6 H           0.0671    0.9073   -1.3950 H       1  LIG1        0.1031
      7 H           2.2351    0.8562    0.2993 H       1  LIG1        0.0686
      8 O           2.7412    3.5036    1.2464 O.3     1  LIG1       -0.5032
      9 H           2.4228    4.2800    1.7228 H       1  LIG1        0.2923
     10 C          -0.7788    5.7447   -0.1831 C.ar    1  LIG1        0.1246
     11 C           0.5206    5.2061   -0.2042 C.ar    1  LIG1        0.0547
     12 C           1.5882    6.1100   -0.1700 C.ar    1  LIG1       -0.0462
     13 C           1.3502    7.4728   -0.1022 C.ar    1  LIG1       -0.0335
     14 C           0.0202    7.9011   -0.0915 C.ar    1  LIG1        0.0898
     15 N          -1.0086    7.0545   -0.1383 N.ar    1  LIG1       -0.2362
     16 H           2.6026    5.7318   -0.2172 H       1  LIG1        0.0626
     17 C          -1.9468    4.8879   -0.1811 C.1     1  LIG1       -0.0491
     18 C          -2.9171    4.1820   -0.1624 C.1     1  LIG1       -0.1124
     19 H          -3.7743    3.5487   -0.1497 H       1  LIG1        0.1232
     20 H           2.1635    8.1845   -0.0756 H       1  LIG1        0.0640
     21 C          -0.3673    9.3200   -0.0237 C.ar    1  LIG1        0.0830
     22 C           0.3382   10.5127    0.0727 C.ar    1  LIG1        0.0790
     23 C          -0.6041   11.5744    0.0890 C.ar    1  LIG1       -0.0182
     24 C          -1.8566   10.9984    0.0128 C.ar    1  LIG1        0.0518
     25 N          -1.6780    9.6439   -0.0557 N.ar    1  LIG1       -0.3518
     26 H          -2.3826    8.9279   -0.1802 H       1  LIG1        0.1660
     27 N           2.9087   10.7141    0.2225 N.1     1  LIG1       -0.1908
     28 C           1.7642   10.6367    0.1533 C.1     1  LIG1        0.1013
     29 H          -0.3928   12.6261    0.1535 H       1  LIG1        0.0652
     30 C          -3.4275   12.8946   -0.4129 C.ar    1  LIG1        0.1262
     31 C          -4.7185   13.4184   -0.4155 C.ar    1  LIG1       -0.0161
     32 C          -3.2073   11.5871    0.0325 C.ar    1  LIG1        0.0432
     33 C          -5.7947   12.6617    0.0240 C.ar    1  LIG1       -0.0167
     34 H          -4.8813   14.4305   -0.7680 H       1  LIG1        0.0655
     35 C          -4.2959   10.8391    0.4935 C.ar    1  LIG1       -0.0076
     36 C          -5.5815   11.3652    0.4857 C.ar    1  LIG1        0.1177
     37 H          -4.1304    9.8449    0.8945 H       1  LIG1        0.0662
     38 H          -6.8001   13.0587    0.0270 H       1  LIG1        0.0655
     39 O          -2.3507   13.6194   -0.8320 O.3     1  LIG1       -0.5061
     40 H          -2.6304   14.4780   -1.1655 H       1  LIG1        0.2922
     41 O          -6.6683   10.6682    0.9246 O.3     1  LIG1       -0.5067
     42 H          -6.4098    9.7987    1.2462 H       1  LIG1        0.2921
@<TRIPOS>BOND
     1     6     1    1
     2    40    39    1
     3     5     1   ar
     4     5     4   ar
     5     1     2   ar
     6    39    30    1
     7    34    31    1
     8    31    30   ar
     9    31    33   ar
    10    30    32   ar
    11     4    11    1
    12     4     3   ar
    13    16    12    1
    14    11    10   ar
    15    11    12   ar
    16    10    17    1
    17    10    15   ar
    18    17    18    3
    19    26    25    1
    20    12    13   ar
    21    18    19    1
    22    15    14   ar
    23    13    14   ar
    24    13    20    1
    25    14    21    1
    26    25    21   ar
    27    25    24   ar
    28    21    22   ar
    29     2     7    1
    30     2     3   ar
    31    24    32    1
    32    24    23   ar
    33    33    38    1
    34    33    36   ar
    35    32    35   ar
    36    22    23   ar
    37    22    28    1
    38    23    29    1
    39    28    27    3
    40     3     8    1
    41    36    35   ar
    42    36    41    1
    43    35    37    1
    44    41    42    1
    45     8     9    1
