@<TRIPOS>MOLECULE
mol_data/opt/m06hf/geoms/mol2/12af12af-12af.out
 26 28 0 0 0
SMALL
GASTEIGER

@<TRIPOS>ATOM
      1 C           0.2482    1.7328   -0.0000 C.ar    1  LIG1        0.0964
      2 C           1.6021    1.7943   -0.0001 C.ar    1  LIG1        0.0185
      3 C           1.9179    3.1948   -0.0001 C.ar    1  LIG1        0.1657
      4 C           0.7253    3.8565   -0.0000 C.ar    1  LIG1        0.2109
      5 O          -0.2960    2.9652   -0.0000 O.2     1  LIG1       -0.4560
      6 H          -0.4437    0.9095    0.0000 H       1  LIG1        0.1031
      7 H           2.3043    0.9795   -0.0002 H       1  LIG1        0.0686
      8 O           3.1670    3.7040   -0.0002 O.3     1  LIG1       -0.5031
      9 H           3.1175    4.6688   -0.0002 H       1  LIG1        0.2923
     10 C           0.4437    5.2726   -0.0000 C.ar    1  LIG1        0.1780
     11 C          -0.6951    6.0122   -0.0001 C.ar    1  LIG1        0.0298
     12 C          -0.2584    7.3829   -0.0001 C.ar    1  LIG1        0.1665
     13 C           1.1022    7.3700   -0.0001 C.ar    1  LIG1        0.2119
     14 O           1.5334    6.0739   -0.0000 O.2     1  LIG1       -0.4447
     15 H          -1.7039    5.6347   -0.0001 H       1  LIG1        0.0693
     16 O          -1.0201    8.5001   -0.0001 O.3     1  LIG1       -0.5031
     17 H          -1.9533    8.2657   -0.0001 H       1  LIG1        0.2923
     18 C           2.1130    8.4065   -0.0001 C.ar    1  LIG1        0.1770
     19 C           3.4721    8.3467    0.0002 C.ar    1  LIG1        0.0290
     20 C           3.9019    9.7153   -0.0001 C.ar    1  LIG1        0.1551
     21 C           2.7830   10.4821   -0.0005 C.ar    1  LIG1        0.1340
     22 O           1.6870    9.6803   -0.0005 O.2     1  LIG1       -0.4560
     23 H           2.6124   11.5431   -0.0007 H       1  LIG1        0.1068
     24 H           4.1009    7.4736    0.0005 H       1  LIG1        0.0693
     25 O           5.2115   10.0774    0.0001 O.3     1  LIG1       -0.5036
     26 H           5.2945   11.0367   -0.0001 H       1  LIG1        0.2923
@<TRIPOS>BOND
     1    23    21    1
     2    22    21   ar
     3    22    18   ar
     4    21    20   ar
     5     9     8    1
     6     8     3    1
     7     7     2    1
     8    26    25    1
     9     2     3   ar
    10     2     1   ar
    11     3     4   ar
    12    18    13    1
    13    18    19   ar
    14    16    12    1
    15    16    17    1
    16    12    13   ar
    17    12    11   ar
    18    13    14   ar
    19    20    25    1
    20    20    19   ar
    21    15    11    1
    22    11    10   ar
    23    14    10   ar
    24     4    10    1
    25     4     5   ar
    26     1     5   ar
    27     1     6    1
    28    19    24    1
