@<TRIPOS>MOLECULE
mol_data/opt/m06hf/geoms/mol2/12af12af-12af-12af.out
 34 37 0 0 0
SMALL
GASTEIGER

@<TRIPOS>ATOM
      1 C           0.0878    1.6869    0.0001 C.ar    1  LIG1        0.0964
      2 C           1.4429    1.7117   -0.0002 C.ar    1  LIG1        0.0185
      3 C           1.7981    3.1034   -0.0001 C.ar    1  LIG1        0.1657
      4 C           0.6220    3.7952   -0.0001 C.ar    1  LIG1        0.2109
      5 O          -0.4240    2.9329   -0.0001 O.2     1  LIG1       -0.4560
      6 H          -0.6238    0.8804    0.0002 H       1  LIG1        0.1031
      7 H           2.1217    0.8771   -0.0002 H       1  LIG1        0.0686
      8 O           3.0603    3.5737   -0.0001 O.3     1  LIG1       -0.5031
      9 H           3.0534    4.5409   -0.0001 H       1  LIG1        0.2923
     10 C           0.3892    5.2185   -0.0001 C.ar    1  LIG1        0.1780
     11 C          -0.7167    6.0111   -0.0001 C.ar    1  LIG1        0.0298
     12 C          -0.2123    7.3555   -0.0001 C.ar    1  LIG1        0.1665
     13 C           1.1464    7.2786   -0.0001 C.ar    1  LIG1        0.2119
     14 O           1.5134    5.9672   -0.0001 O.2     1  LIG1       -0.4447
     15 H          -1.7416    5.6815   -0.0001 H       1  LIG1        0.0693
     16 O          -0.9023    8.5225   -0.0001 O.3     1  LIG1       -0.5031
     17 H          -1.8487    8.3490   -0.0000 H       1  LIG1        0.2923
     18 C           2.1792    8.2887   -0.0002 C.ar    1  LIG1        0.1780
     19 C           2.1189    9.6493   -0.0002 C.ar    1  LIG1        0.0298
     20 C           3.4861   10.0840   -0.0002 C.ar    1  LIG1        0.1665
     21 C           4.2591    8.9607   -0.0002 C.ar    1  LIG1        0.2119
     22 O           3.4552    7.8634   -0.0002 O.2     1  LIG1       -0.4447
     23 H           1.2222   10.2469   -0.0002 H       1  LIG1        0.0693
     24 O           3.9591   11.3523   -0.0002 O.3     1  LIG1       -0.5031
     25 H           3.2262   11.9756   -0.0002 H       1  LIG1        0.2923
     26 C           5.6891    8.7314   -0.0002 C.ar    1  LIG1        0.1770
     27 C           6.4153    7.5806   -0.0001 C.ar    1  LIG1        0.0290
     28 C           7.7841    8.0089   -0.0001 C.ar    1  LIG1        0.1551
     29 C           7.7750    9.3661   -0.0002 C.ar    1  LIG1        0.1340
     30 O           6.4914    9.8092   -0.0002 O.2     1  LIG1       -0.4560
     31 H           8.5488   10.1123   -0.0002 H       1  LIG1        0.1068
     32 H           6.0480    6.5699    0.0000 H       1  LIG1        0.0693
     33 O           8.8322    7.1433    0.0000 O.3     1  LIG1       -0.5036
     34 H           9.6651    7.6262    0.0000 H       1  LIG1        0.2923
@<TRIPOS>BOND
     1    25    24    1
     2    30    29   ar
     3    30    26   ar
     4    24    20    1
     5     7     2    1
     6    23    19    1
     7    31    29    1
     8    20    19   ar
     9    20    21   ar
    10    19    18   ar
    11    21    26    1
    12    21    22   ar
    13    29    28   ar
    14    18    22   ar
    15    18    13    1
    16    26    27   ar
    17     2     3   ar
    18     2     1   ar
    19    13    14   ar
    20    13    12   ar
    21    14    10   ar
    22     8     3    1
    23     8     9    1
    24    12    11   ar
    25    12    16    1
    26     3     4   ar
    27    10    11   ar
    28    10     4    1
    29    11    15    1
    30     5     4   ar
    31     5     1   ar
    32    28    27   ar
    33    28    33    1
    34    16    17    1
    35    27    32    1
    36    34    33    1
    37     1     6    1
