@<TRIPOS>MOLECULE
mol_data/opt/m06hf/geoms/mol2/12af12af12af-12af-.out
 34 37 0 0 0
SMALL
GASTEIGER

@<TRIPOS>ATOM
      1 C           0.7256    1.5670    0.5335 C.ar    1  LIG1        0.0964
      2 C           1.9025    1.7536   -0.1138 C.ar    1  LIG1        0.0185
      3 C           1.9767    3.1658   -0.3520 C.ar    1  LIG1        0.1657
      4 C           0.8468    3.7106    0.1787 C.ar    1  LIG1        0.2109
      5 O           0.0767    2.7306    0.7140 O.2     1  LIG1       -0.4560
      6 H           0.2359    0.6868    0.9106 H       1  LIG1        0.1031
      7 H           2.6279    1.0131   -0.4003 H       1  LIG1        0.0686
      8 O           2.9883    3.7893   -0.9991 O.3     1  LIG1       -0.5031
      9 H           2.7064    4.6749   -1.2625 H       1  LIG1        0.2923
     10 C           0.4269    5.0977    0.2315 C.ar    1  LIG1        0.1780
     11 C           1.1636    6.2403    0.3511 C.ar    1  LIG1        0.0298
     12 C           0.2196    7.3153    0.2606 C.ar    1  LIG1        0.1665
     13 C          -1.0060    6.7333    0.1075 C.ar    1  LIG1        0.2119
     14 O          -0.8815    5.3832    0.0795 O.2     1  LIG1       -0.4447
     15 H           2.2204    6.3222    0.5426 H       1  LIG1        0.0693
     16 O           0.5356    8.6218    0.3353 O.3     1  LIG1       -0.5031
     17 H          -0.2669    9.1600    0.2859 H       1  LIG1        0.2923
     18 C          -2.3082    7.3413   -0.0069 C.ar    1  LIG1        0.1780
     19 C          -3.5725    6.8718   -0.1863 C.ar    1  LIG1        0.0298
     20 C          -4.4031    8.0430   -0.2180 C.ar    1  LIG1        0.1665
     21 C          -3.5895    9.1216   -0.0582 C.ar    1  LIG1        0.2119
     22 O          -2.3051    8.6900    0.0744 O.2     1  LIG1       -0.4447
     23 H          -3.8650    5.8398   -0.2830 H       1  LIG1        0.0693
     24 O          -5.7479    8.1275   -0.3738 O.3     1  LIG1       -0.5031
     25 H          -6.1264    7.2506   -0.4885 H       1  LIG1        0.2923
     26 C          -3.8572   10.5427   -0.0056 C.ar    1  LIG1        0.1770
     27 C          -5.0210   11.2446   -0.0799 C.ar    1  LIG1        0.0290
     28 C          -4.6263   12.6227    0.0290 C.ar    1  LIG1        0.1551
     29 C          -3.2772   12.6408    0.1597 C.ar    1  LIG1        0.1340
     30 O          -2.8054   11.3664    0.1403 O.2     1  LIG1       -0.4560
     31 H          -2.5651   13.4355    0.2743 H       1  LIG1        0.1068
     32 H          -6.0084   10.8298   -0.1946 H       1  LIG1        0.0693
     33 O          -5.4239   13.7239    0.0242 O.3     1  LIG1       -0.5036
     34 H          -6.3220   13.4777   -0.2155 H       1  LIG1        0.2923
@<TRIPOS>BOND
     1     9     8    1
     2     8     3    1
     3    25    24    1
     4     7     2    1
     5    24    20    1
     6     3     2   ar
     7     3     4   ar
     8    23    19    1
     9    20    19   ar
    10    20    21   ar
    11    34    33    1
    12    32    27    1
    13    19    18   ar
    14     2     1   ar
    15    27    26   ar
    16    27    28   ar
    17    21    26    1
    18    21    22   ar
    19    18    22   ar
    20    18    13    1
    21    26    30   ar
    22    33    28    1
    23    28    29   ar
    24    14    13   ar
    25    14    10   ar
    26    13    12   ar
    27    30    29   ar
    28    29    31    1
    29     4    10    1
    30     4     5   ar
    31    10    11   ar
    32    12    16    1
    33    12    11   ar
    34    17    16    1
    35    11    15    1
    36     1     5   ar
    37     1     6    1
