@<TRIPOS>MOLECULE
mol_data/opt/m06hf/geoms/mol2/12af12af12af12af-.out
 34 37 0 0 0
SMALL
GASTEIGER

@<TRIPOS>ATOM
      1 C           1.5148    1.8223    1.2636 C.ar    1  LIG1        0.0964
      2 C           2.4368    1.8991    0.2717 C.ar    1  LIG1        0.0185
      3 C           2.2527    3.1979   -0.3075 C.ar    1  LIG1        0.1657
      4 C           1.2455    3.7959    0.3872 C.ar    1  LIG1        0.2109
      5 O           0.7897    2.9511    1.3442 O.2     1  LIG1       -0.4560
      6 H           1.2676    1.0483    1.9687 H       1  LIG1        0.1031
      7 H           3.1518    1.1548   -0.0310 H       1  LIG1        0.0686
      8 O           2.9585    3.6874   -1.3539 O.3     1  LIG1       -0.5031
      9 H           2.4860    4.4373   -1.7380 H       1  LIG1        0.2923
     10 C           0.6713    5.1181    0.2262 C.ar    1  LIG1        0.1780
     11 C           1.2556    6.2877   -0.1682 C.ar    1  LIG1        0.0298
     12 C           0.1851    7.2359   -0.2335 C.ar    1  LIG1        0.1665
     13 C          -0.9451    6.5767    0.1480 C.ar    1  LIG1        0.2119
     14 O          -0.6511    5.2780    0.4117 O.2     1  LIG1       -0.4447
     15 H           2.3030    6.4724   -0.3373 H       1  LIG1        0.0693
     16 O           0.3197    8.5283   -0.6071 O.3     1  LIG1       -0.5031
     17 H          -0.5494    8.8983   -0.8104 H       1  LIG1        0.2923
     18 C          -2.2970    7.0784    0.2952 C.ar    1  LIG1        0.1780
     19 C          -2.7436    8.3121    0.6705 C.ar    1  LIG1        0.0298
     20 C          -4.1698    8.2543    0.5446 C.ar    1  LIG1        0.1665
     21 C          -4.4662    6.9925    0.1201 C.ar    1  LIG1        0.2119
     22 O          -3.3264    6.2765   -0.0419 O.2     1  LIG1       -0.4447
     23 H          -2.1584    9.1336    1.0487 H       1  LIG1        0.0693
     24 O          -5.0099    9.2718    0.8213 O.3     1  LIG1       -0.5031
     25 H          -5.9202    8.9824    0.6740 H       1  LIG1        0.2923
     26 C          -5.7444    6.3713   -0.1432 C.ar    1  LIG1        0.1770
     27 C          -6.1246    5.1356   -0.5543 C.ar    1  LIG1        0.0290
     28 C          -7.5644    5.1876   -0.6100 C.ar    1  LIG1        0.1551
     29 C          -7.9366    6.4325   -0.2344 C.ar    1  LIG1        0.1340
     30 O          -6.8207    7.1646    0.0541 O.2     1  LIG1       -0.4560
     31 H          -8.8908    6.9121   -0.1281 H       1  LIG1        0.1068
     32 H          -5.4737    4.3080   -0.7825 H       1  LIG1        0.0693
     33 O          -8.4211    4.1961   -0.9643 O.3     1  LIG1       -0.5036
     34 H          -7.9321    3.4054   -1.2104 H       1  LIG1        0.2923
@<TRIPOS>BOND
     1     9     8    1
     2     8     3    1
     3    34    33    1
     4    33    28    1
     5    17    16    1
     6    32    27    1
     7    28    27   ar
     8    28    29   ar
     9    16    12    1
    10    27    26   ar
    11    15    11    1
    12     3     2   ar
    13     3     4   ar
    14    29    31    1
    15    29    30   ar
    16    12    11   ar
    17    12    13   ar
    18    11    10   ar
    19    26    30   ar
    20    26    21    1
    21    22    21   ar
    22    22    18   ar
    23     7     2    1
    24    21    20   ar
    25    13    18    1
    26    13    14   ar
    27    10     4    1
    28    10    14   ar
    29     2     1   ar
    30    18    19   ar
    31     4     5   ar
    32    20    19   ar
    33    20    24    1
    34    19    23    1
    35    25    24    1
    36     1     5   ar
    37     1     6    1
