@<TRIPOS>MOLECULE
mol_data/opt/m06hf/geoms/mol2/12af12af12af12af.out
 34 37 0 0 0
SMALL
GASTEIGER

@<TRIPOS>ATOM
      1 C           1.6281    1.8628    1.3514 C.ar    1  LIG1        0.0964
      2 C           2.5410    1.9324    0.3504 C.ar    1  LIG1        0.0185
      3 C           2.3252    3.2112   -0.2614 C.ar    1  LIG1        0.1657
      4 C           1.3109    3.8062    0.4254 C.ar    1  LIG1        0.2109
      5 O           0.8803    2.9779    1.4079 O.2     1  LIG1       -0.4560
      6 H           1.4020    1.1027    2.0783 H       1  LIG1        0.1031
      7 H           3.2684    1.1949    0.0613 H       1  LIG1        0.0686
      8 O           3.0126    3.6874   -1.3263 O.3     1  LIG1       -0.5031
      9 H           2.5179    4.4127   -1.7294 H       1  LIG1        0.2923
     10 C           0.7067    5.1110    0.2333 C.ar    1  LIG1        0.1780
     11 C           1.2642    6.2827   -0.1930 C.ar    1  LIG1        0.0298
     12 C           0.1729    7.2051   -0.2769 C.ar    1  LIG1        0.1665
     13 C          -0.9412    6.5310    0.1254 C.ar    1  LIG1        0.2119
     14 O          -0.6176    5.2465    0.4202 O.2     1  LIG1       -0.4447
     15 H           2.3066    6.4849   -0.3720 H       1  LIG1        0.0693
     16 O           0.2771    8.4908   -0.6832 O.3     1  LIG1       -0.5031
     17 H          -0.6016    8.8359   -0.8891 H       1  LIG1        0.2923
     18 C          -2.3048    7.0071    0.2590 C.ar    1  LIG1        0.1780
     19 C          -2.7733    8.2398    0.6134 C.ar    1  LIG1        0.0298
     20 C          -4.1953    8.1525    0.4703 C.ar    1  LIG1        0.1665
     21 C          -4.4706    6.8801    0.0697 C.ar    1  LIG1        0.2119
     22 O          -3.3147    6.1841   -0.0742 O.2     1  LIG1       -0.4447
     23 H          -2.2036    9.0778    0.9786 H       1  LIG1        0.0693
     24 O          -5.0594    9.1672    0.6986 O.3     1  LIG1       -0.5031
     25 H          -5.9275    8.9338    0.3446 H       1  LIG1        0.2923
     26 C          -5.7549    6.2548   -0.1919 C.ar    1  LIG1        0.1770
     27 C          -6.9578    6.4184    0.4272 C.ar    1  LIG1        0.0290
     28 C          -7.8810    5.6209   -0.3294 C.ar    1  LIG1        0.1551
     29 C          -7.1672    5.0364   -1.3252 C.ar    1  LIG1        0.1340
     30 O          -5.8718    5.4309   -1.2476 O.2     1  LIG1       -0.4560
     31 H          -7.4232    4.3523   -2.1143 H       1  LIG1        0.1068
     32 H          -7.1638    6.9702    1.3292 H       1  LIG1        0.0693
     33 O          -9.1988    5.5237   -0.0188 O.3     1  LIG1       -0.5036
     34 H          -9.6454    4.9162   -0.6175 H       1  LIG1        0.2923
@<TRIPOS>BOND
     1    31    29    1
     2     9     8    1
     3     8     3    1
     4    29    30   ar
     5    29    28   ar
     6    30    26   ar
     7    17    16    1
     8    16    12    1
     9    34    33    1
    10    15    11    1
    11    28    33    1
    12    28    27   ar
    13    12    11   ar
    14    12    13   ar
    15     3     2   ar
    16     3     4   ar
    17    11    10   ar
    18    26    21    1
    19    26    27   ar
    20    22    21   ar
    21    22    18   ar
    22     7     2    1
    23    21    20   ar
    24    13    18    1
    25    13    14   ar
    26    10    14   ar
    27    10     4    1
    28    18    19   ar
    29    25    24    1
    30     2     1   ar
    31     4     5   ar
    32    27    32    1
    33    20    19   ar
    34    20    24    1
    35    19    23    1
    36     1     5   ar
    37     1     6    1
