@<TRIPOS>MOLECULE
mol_data/opt/m06hf/geoms/mol2/12ag12ag12ag-12ag-.out
 34 37 0 0 0
SMALL
GASTEIGER

@<TRIPOS>ATOM
      1 C           0.5650    1.7564   -0.0213 C.ar    1  LIG1        0.0938
      2 C           1.9108    1.8731    0.0555 C.ar    1  LIG1       -0.0099
      3 C           2.1785    3.2857    0.0968 C.ar    1  LIG1        0.0537
      4 C           0.9601    3.8987    0.0505 C.ar    1  LIG1        0.1828
      5 O          -0.0147    2.9750   -0.0187 O.2     1  LIG1       -0.4587
      6 H          -0.1011    0.9143   -0.0764 H       1  LIG1        0.1030
      7 H           2.6413    1.0826    0.0844 H       1  LIG1        0.0660
      8 S           3.7551    4.0719    0.2487 S.3     1  LIG1       -0.1389
      9 H           4.1543    3.8495   -1.0098 H       1  LIG1        0.1072
     10 C           0.5445    5.2952    0.0519 C.ar    1  LIG1        0.1729
     11 C           1.2217    6.4740    0.1160 C.ar    1  LIG1        0.0012
     12 C           0.2206    7.4991    0.0627 C.ar    1  LIG1        0.0544
     13 C          -0.9795    6.8526   -0.0381 C.ar    1  LIG1        0.1838
     14 O          -0.7839    5.5230   -0.0464 O.2     1  LIG1       -0.4475
     15 H           2.2865    6.6102    0.1898 H       1  LIG1        0.0668
     16 S           0.4814    9.2462    0.0372 S.3     1  LIG1       -0.1389
     17 H           0.8254    9.3703    1.3249 H       1  LIG1        0.1072
     18 C          -2.3545    7.3177   -0.1424 C.ar    1  LIG1        0.1729
     19 C          -2.9160    8.5491   -0.2888 C.ar    1  LIG1        0.0012
     20 C          -4.3319    8.3283   -0.3127 C.ar    1  LIG1        0.0544
     21 C          -4.5084    6.9784   -0.1925 C.ar    1  LIG1        0.1838
     22 O          -3.3155    6.3686   -0.0894 O.2     1  LIG1       -0.4475
     23 H          -2.4044    9.4915   -0.3755 H       1  LIG1        0.0668
     24 S          -5.5957    9.5453   -0.5342 S.3     1  LIG1       -0.1389
     25 H          -5.5313   10.0583    0.7003 H       1  LIG1        0.1072
     26 C          -5.6876    6.1230   -0.1681 C.ar    1  LIG1        0.1719
     27 C          -7.0131    6.3610   -0.3665 C.ar    1  LIG1        0.0005
     28 C          -7.6589    5.0878   -0.2053 C.ar    1  LIG1        0.0433
     29 C          -6.6730    4.1980    0.0736 C.ar    1  LIG1        0.1058
     30 O          -5.4770    4.8194    0.0968 O.2     1  LIG1       -0.4587
     31 H          -6.6728    3.1405    0.2691 H       1  LIG1        0.1041
     32 H          -7.4714    7.3058   -0.6014 H       1  LIG1        0.0667
     33 S          -9.4013    4.8336   -0.3596 S.3     1  LIG1       -0.1396
     34 H          -9.3526    3.5072   -0.2059 H       1  LIG1        0.1072
@<TRIPOS>BOND
     1     9     8    1
     2    32    27    1
     3    24    20    1
     4    24    25    1
     5    23    19    1
     6    27    28   ar
     7    27    26   ar
     8    33    34    1
     9    33    28    1
    10    20    19   ar
    11    20    21   ar
    12    19    18   ar
    13    28    29   ar
    14    21    26    1
    15    21    22   ar
    16    26    30   ar
    17    18    22   ar
    18    18    13    1
    19     6     1    1
    20    14    13   ar
    21    14    10   ar
    22    13    12   ar
    23     1     5   ar
    24     1     2   ar
    25     5     4   ar
    26    16    12    1
    27    16    17    1
    28     4    10    1
    29     4     3   ar
    30    10    11   ar
    31     2     7    1
    32     2     3   ar
    33    12    11   ar
    34    29    30   ar
    35    29    31    1
    36     3     8    1
    37    11    15    1
