@<TRIPOS>MOLECULE
mol_data/opt/m06hf/geoms/mol2/12ag12ag-12ag-.out
 26 28 0 0 0
SMALL
GASTEIGER

@<TRIPOS>ATOM
      1 C           0.3370    1.7403    0.0576 C.ar    1  LIG1        0.0938
      2 C           1.6810    1.8130   -0.0787 C.ar    1  LIG1       -0.0099
      3 C           1.9942    3.2158   -0.1287 C.ar    1  LIG1        0.0537
      4 C           0.8001    3.8695   -0.0243 C.ar    1  LIG1        0.1828
      5 O          -0.2005    2.9783    0.0888 O.2     1  LIG1       -0.4587
      6 H          -0.3540    0.9204    0.1404 H       1  LIG1        0.1030
      7 H           2.3813    0.9982   -0.1445 H       1  LIG1        0.0660
      8 S           3.5887    3.9425   -0.3671 S.3     1  LIG1       -0.1389
      9 H           3.9942    3.8395    0.9043 H       1  LIG1        0.1072
     10 C           0.4315    5.2787   -0.0121 C.ar    1  LIG1        0.1729
     11 C           1.1502    6.4342   -0.0107 C.ar    1  LIG1        0.0012
     12 C           0.1832    7.4926    0.0001 C.ar    1  LIG1        0.0544
     13 C          -1.0422    6.8873    0.0150 C.ar    1  LIG1        0.1838
     14 O          -0.8924    5.5518    0.0088 O.2     1  LIG1       -0.4475
     15 H           2.2213    6.5344   -0.0203 H       1  LIG1        0.0668
     16 S           0.5053    9.2291    0.0658 S.3     1  LIG1       -0.1389
     17 H           0.7965    9.3826   -1.2321 H       1  LIG1        0.1072
     18 C          -2.4086    7.3937    0.0301 C.ar    1  LIG1        0.1719
     19 C          -2.9381    8.6383    0.1812 C.ar    1  LIG1        0.0005
     20 C          -4.3613    8.4628    0.0890 C.ar    1  LIG1        0.0433
     21 C          -4.5653    7.1357   -0.1086 C.ar    1  LIG1        0.1058
     22 O          -3.3867    6.4826   -0.1399 O.2     1  LIG1       -0.4587
     23 H          -5.4522    6.5411   -0.2368 H       1  LIG1        0.1041
     24 H          -2.3987    9.5546    0.3466 H       1  LIG1        0.0667
     25 S          -5.5321    9.7829    0.2033 S.3     1  LIG1       -0.1396
     26 H          -6.6059    9.0065    0.3820 H       1  LIG1        0.1072
@<TRIPOS>BOND
     1    17    16    1
     2     8     3    1
     3     8     9    1
     4    23    21    1
     5     7     2    1
     6    22    21   ar
     7    22    18   ar
     8     3     2   ar
     9     3     4   ar
    10    21    20   ar
    11     2     1   ar
    12     4    10    1
    13     4     5   ar
    14    15    11    1
    15    10    11   ar
    16    10    14   ar
    17    11    12   ar
    18    12    13   ar
    19    12    16    1
    20    14    13   ar
    21    13    18    1
    22    18    19   ar
    23     1     5   ar
    24     1     6    1
    25    20    19   ar
    26    20    25    1
    27    19    24    1
    28    25    26    1
