@<TRIPOS>MOLECULE
mol_data/opt/m06hf/geoms/mol2/12ag12ag-12ag-12ag-.out
 34 37 0 0 0
SMALL
GASTEIGER

@<TRIPOS>ATOM
      1 C           0.5656    1.7545   -0.3093 C.ar    1  LIG1        0.0938
      2 C           1.9131    1.8658   -0.2619 C.ar    1  LIG1       -0.0099
      3 C           2.1843    3.2703   -0.1105 C.ar    1  LIG1        0.0537
      4 C           0.9661    3.8857   -0.0880 C.ar    1  LIG1        0.1828
      5 O          -0.0112    2.9704   -0.2064 O.2     1  LIG1       -0.4587
      6 H          -0.1036    0.9191   -0.4111 H       1  LIG1        0.1030
      7 H           2.6438    1.0781   -0.3300 H       1  LIG1        0.0660
      8 S           3.7694    4.0512   -0.0746 S.3     1  LIG1       -0.1389
      9 H           4.0377    3.8077    1.2149 H       1  LIG1        0.1072
     10 C           0.5529    5.2791    0.0135 C.ar    1  LIG1        0.1729
     11 C           1.2296    6.4511    0.1601 C.ar    1  LIG1        0.0012
     12 C           0.2290    7.4777    0.1709 C.ar    1  LIG1        0.0544
     13 C          -0.9719    6.8382    0.0361 C.ar    1  LIG1        0.1838
     14 O          -0.7766    5.5130   -0.0599 O.2     1  LIG1       -0.4475
     15 H           2.2937    6.5833    0.2487 H       1  LIG1        0.0668
     16 S           0.4887    9.2109    0.4057 S.3     1  LIG1       -0.1389
     17 H           0.7162    9.5144   -0.8793 H       1  LIG1        0.1072
     18 C          -2.3468    7.3093   -0.0332 C.ar    1  LIG1        0.1729
     19 C          -2.9046    8.5439   -0.1677 C.ar    1  LIG1        0.0012
     20 C          -4.3221    8.3308   -0.1644 C.ar    1  LIG1        0.0544
     21 C          -4.5027    6.9819   -0.0411 C.ar    1  LIG1        0.1838
     22 O          -3.3113    6.3651    0.0367 O.2     1  LIG1       -0.4475
     23 H          -2.3905    9.4848   -0.2527 H       1  LIG1        0.0668
     24 S          -5.5848    9.5561   -0.3412 S.3     1  LIG1       -0.1389
     25 H          -5.5039   10.0359    0.9052 H       1  LIG1        0.1072
     26 C          -5.6871    6.1359    0.0176 C.ar    1  LIG1        0.1719
     27 C          -6.9867    6.3309   -0.3361 C.ar    1  LIG1        0.0005
     28 C          -7.6588    5.1020   -0.0175 C.ar    1  LIG1        0.0433
     29 C          -6.7114    4.2779    0.4991 C.ar    1  LIG1        0.1058
     30 O          -5.5150    4.8943    0.5141 O.2     1  LIG1       -0.4587
     31 H          -6.7432    3.2700    0.8735 H       1  LIG1        0.1041
     32 H          -7.4125    7.2171   -0.7733 H       1  LIG1        0.0667
     33 S          -9.3867    4.8012   -0.2580 S.3     1  LIG1       -0.1396
     34 H          -9.2709    3.4838   -0.4531 H       1  LIG1        0.1072
@<TRIPOS>BOND
     1    17    16    1
     2    32    27    1
     3    34    33    1
     4     6     1    1
     5    24    20    1
     6    24    25    1
     7    27    28   ar
     8    27    26   ar
     9     7     2    1
    10     1     2   ar
    11     1     5   ar
    12     2     3   ar
    13    33    28    1
    14    23    19    1
    15     5     4   ar
    16    19    20   ar
    17    19    18   ar
    18    20    21   ar
    19     3     4   ar
    20     3     8    1
    21     4    10    1
    22     8     9    1
    23    14    10   ar
    24    14    13   ar
    25    21    26    1
    26    21    22   ar
    27    18    13    1
    28    18    22   ar
    29    28    29   ar
    30    10    11   ar
    31    26    30   ar
    32    13    12   ar
    33    11    12   ar
    34    11    15    1
    35    12    16    1
    36    29    30   ar
    37    29    31    1
