@<TRIPOS>MOLECULE
mol_data/opt/m06hf/geoms/mol2/12ag12ag-12ag12ag-.out
 34 37 0 0 0
SMALL
GASTEIGER

@<TRIPOS>ATOM
      1 C           0.6812    1.7524   -0.3175 C.ar    1  LIG1        0.0938
      2 C           2.0266    1.8914   -0.2840 C.ar    1  LIG1       -0.0099
      3 C           2.2710    3.3051   -0.1784 C.ar    1  LIG1        0.0537
      4 C           1.0412    3.8969   -0.1659 C.ar    1  LIG1        0.1828
      5 O           0.0812    2.9595   -0.2483 O.2     1  LIG1       -0.4587
      6 H           0.0279    0.9014   -0.3883 H       1  LIG1        0.1030
      7 H           2.7723    1.1165   -0.3335 H       1  LIG1        0.0660
      8 S           3.8402    4.1181   -0.1803 S.3     1  LIG1       -0.1389
      9 H           4.1312    3.9052    1.1098 H       1  LIG1        0.1072
     10 C           0.6012    5.2843   -0.0999 C.ar    1  LIG1        0.1729
     11 C           1.2560    6.4725    0.0120 C.ar    1  LIG1        0.0012
     12 C           0.2352    7.4787    0.0173 C.ar    1  LIG1        0.0544
     13 C          -0.9533    6.8140   -0.1042 C.ar    1  LIG1        0.1838
     14 O          -0.7330    5.4908   -0.1711 O.2     1  LIG1       -0.4475
     15 H           2.3187    6.6285    0.0752 H       1  LIG1        0.0668
     16 S           0.4738    9.2294    0.1029 S.3     1  LIG1       -0.1389
     17 H           0.4903    9.3173    1.4402 H       1  LIG1        0.1072
     18 C          -2.3374    7.2581   -0.1743 C.ar    1  LIG1        0.1729
     19 C          -2.9186    8.4806   -0.3269 C.ar    1  LIG1        0.0012
     20 C          -4.3310    8.2425   -0.3073 C.ar    1  LIG1        0.0544
     21 C          -4.4861    6.8932   -0.1560 C.ar    1  LIG1        0.1838
     22 O          -3.2843    6.2999   -0.0660 O.2     1  LIG1       -0.4475
     23 H          -2.4215    9.4280   -0.4400 H       1  LIG1        0.0668
     24 S          -5.5990    9.4666   -0.4762 S.3     1  LIG1       -0.1389
     25 H          -6.0132    9.4218    0.7969 H       1  LIG1        0.1072
     26 C          -5.6622    6.0404   -0.0607 C.ar    1  LIG1        0.1719
     27 C          -6.9670    6.2249   -0.3974 C.ar    1  LIG1        0.0005
     28 C          -7.6326    5.0055   -0.0283 C.ar    1  LIG1        0.0433
     29 C          -6.6735    4.1928    0.4857 C.ar    1  LIG1        0.1058
     30 O          -5.4809    4.8094    0.4680 O.2     1  LIG1       -0.4587
     31 H          -6.7050    3.1924    0.8800 H       1  LIG1        0.1041
     32 H          -7.3998    7.0964   -0.8579 H       1  LIG1        0.0667
     33 S          -9.3295    4.5648   -0.2696 S.3     1  LIG1       -0.1396
     34 H          -9.8335    5.4084    0.6382 H       1  LIG1        0.1072
@<TRIPOS>BOND
     1    32    27    1
     2    24    20    1
     3    24    25    1
     4    23    19    1
     5    27    26   ar
     6    27    28   ar
     7     6     1    1
     8     7     2    1
     9    19    20   ar
    10    19    18   ar
    11     1     2   ar
    12     1     5   ar
    13    20    21   ar
    14     2     3   ar
    15    33    28    1
    16    33    34    1
    17     5     4   ar
    18     8     3    1
    19     8     9    1
    20     3     4   ar
    21    18    13    1
    22    18    22   ar
    23    14    13   ar
    24    14    10   ar
    25     4    10    1
    26    21    22   ar
    27    21    26    1
    28    13    12   ar
    29    10    11   ar
    30    26    30   ar
    31    28    29   ar
    32    11    12   ar
    33    11    15    1
    34    12    16    1
    35    16    17    1
    36    30    29   ar
    37    29    31    1
