@<TRIPOS>MOLECULE
mol_data/opt/m06hf/geoms/mol2/12ag12ag.out
 18 19 0 0 0
SMALL
GASTEIGER

@<TRIPOS>ATOM
      1 C           0.2065    1.7920    0.0626 C.ar    1  LIG1        0.0938
      2 C           1.5585    1.8322    0.0919 C.ar    1  LIG1       -0.0099
      3 C           1.9086    3.2276    0.0765 C.ar    1  LIG1        0.0537
      4 C           0.7268    3.9101    0.0504 C.ar    1  LIG1        0.1827
      5 O          -0.3012    3.0431    0.0407 O.2     1  LIG1       -0.4587
      6 H          -0.5101    0.9902    0.0569 H       1  LIG1        0.1030
      7 H           2.2429    1.0022    0.1219 H       1  LIG1        0.0660
      8 S           3.5347    3.9187    0.1388 S.3     1  LIG1       -0.1389
      9 H           3.7926    3.8194   -1.1706 H       1  LIG1        0.1072
     10 C           0.3927    5.3301    0.0310 C.ar    1  LIG1        0.1718
     11 C           1.1212    6.4586    0.2460 C.ar    1  LIG1        0.0005
     12 C           0.2001    7.5488    0.0735 C.ar    1  LIG1        0.0433
     13 C          -0.9967    6.9862   -0.2284 C.ar    1  LIG1        0.1058
     14 O          -0.8883    5.6425   -0.2500 O.2     1  LIG1       -0.4587
     15 H          -1.9679    7.3974   -0.4398 H       1  LIG1        0.1041
     16 H           2.1643    6.5140    0.5044 H       1  LIG1        0.0667
     17 S           0.6366    9.2559    0.2268 S.3     1  LIG1       -0.1396
     18 H          -0.6126    9.7043    0.3785 H       1  LIG1        0.1072
@<TRIPOS>BOND
     1     9     8    1
     2    15    13    1
     3    14    13   ar
     4    14    10   ar
     5    13    12   ar
     6    10     4    1
     7    10    11   ar
     8     5     4   ar
     9     5     1   ar
    10     4     3   ar
    11     6     1    1
    12     1     2   ar
    13    12    17    1
    14    12    11   ar
    15     3     2   ar
    16     3     8    1
    17     2     7    1
    18    17    18    1
    19    11    16    1
