@<TRIPOS>MOLECULE
mol_data/opt/m06hf/geoms/mol2/12ag12ag-.out
 18 19 0 0 0
SMALL
GASTEIGER

@<TRIPOS>ATOM
      1 C           0.2352    1.7929    0.1420 C.ar    1  LIG1        0.0938
      2 C           1.5824    1.8635    0.0439 C.ar    1  LIG1       -0.0099
      3 C           1.8929    3.2626   -0.0833 C.ar    1  LIG1        0.0537
      4 C           0.6947    3.9160   -0.0572 C.ar    1  LIG1        0.1827
      5 O          -0.3064    3.0286    0.0802 O.2     1  LIG1       -0.4587
      6 H          -0.4574    0.9776    0.2513 H       1  LIG1        0.1030
      7 H           2.2880    1.0509    0.0496 H       1  LIG1        0.0660
      8 S           3.4891    3.9808   -0.3310 S.3     1  LIG1       -0.1389
      9 H           3.8647    3.9913    0.9550 H       1  LIG1        0.1072
     10 C           0.3196    5.3231   -0.1455 C.ar    1  LIG1        0.1718
     11 C           1.0311    6.4822   -0.1639 C.ar    1  LIG1        0.0005
     12 C           0.0529    7.5312   -0.2608 C.ar    1  LIG1        0.0433
     13 C          -1.1570    6.9163   -0.3008 C.ar    1  LIG1        0.1058
     14 O          -1.0055    5.5851   -0.2288 O.2     1  LIG1       -0.4587
     15 H          -2.1615    7.2945   -0.3787 H       1  LIG1        0.1041
     16 H           2.1006    6.5891   -0.1240 H       1  LIG1        0.0667
     17 S           0.3356    9.2747   -0.3821 S.3     1  LIG1       -0.1396
     18 H           0.4099    9.5130    0.9326 H       1  LIG1        0.1072
@<TRIPOS>BOND
     1    17    12    1
     2    17    18    1
     3    15    13    1
     4     8     3    1
     5     8     9    1
     6    13    12   ar
     7    13    14   ar
     8    12    11   ar
     9    14    10   ar
    10    11    10   ar
    11    11    16    1
    12    10     4    1
    13     3     4   ar
    14     3     2   ar
    15     4     5   ar
    16     2     7    1
    17     2     1   ar
    18     5     1   ar
    19     1     6    1
