@<TRIPOS>MOLECULE
mol_data/opt/m06hf/geoms/mol2/12ag12ag-12ag-12ag.out
 34 37 0 0 0
SMALL
GASTEIGER

@<TRIPOS>ATOM
      1 C           0.5557    1.7624   -0.2951 C.ar    1  LIG1        0.0938
      2 C           1.9035    1.8748   -0.2603 C.ar    1  LIG1       -0.0099
      3 C           2.1750    3.2796   -0.1129 C.ar    1  LIG1        0.0537
      4 C           0.9566    3.8942   -0.0800 C.ar    1  LIG1        0.1828
      5 O          -0.0211    2.9780   -0.1883 O.2     1  LIG1       -0.4587
      6 H          -0.1137    0.9264   -0.3900 H       1  LIG1        0.1030
      7 H           2.6341    1.0876   -0.3344 H       1  LIG1        0.0660
      8 S           3.7600    4.0614   -0.0924 S.3     1  LIG1       -0.1389
      9 H           4.0385    3.8233    1.1960 H       1  LIG1        0.1072
     10 C           0.5437    5.2880    0.0182 C.ar    1  LIG1        0.1729
     11 C           1.2227    6.4607    0.1459 C.ar    1  LIG1        0.0012
     12 C           0.2231    7.4885    0.1509 C.ar    1  LIG1        0.0544
     13 C          -0.9793    6.8490    0.0343 C.ar    1  LIG1        0.1838
     14 O          -0.7860    5.5216   -0.0428 O.2     1  LIG1       -0.4475
     15 H           2.2878    6.5917    0.2238 H       1  LIG1        0.0668
     16 S           0.4817    9.2271    0.3453 S.3     1  LIG1       -0.1389
     17 H           0.9343    9.4466   -0.8952 H       1  LIG1        0.1072
     18 C          -2.3557    7.3180   -0.0292 C.ar    1  LIG1        0.1729
     19 C          -2.9184    8.5510   -0.1586 C.ar    1  LIG1        0.0012
     20 C          -4.3351    8.3320   -0.1543 C.ar    1  LIG1        0.0544
     21 C          -4.5104    6.9822   -0.0345 C.ar    1  LIG1        0.1838
     22 O          -3.3164    6.3699    0.0397 O.2     1  LIG1       -0.4475
     23 H          -2.4069    9.4936   -0.2427 H       1  LIG1        0.0668
     24 S          -5.6035    9.5522   -0.3259 S.3     1  LIG1       -0.1389
     25 H          -5.5192   10.0332    0.9199 H       1  LIG1        0.1072
     26 C          -5.6910    6.1307    0.0228 C.ar    1  LIG1        0.1719
     27 C          -6.9929    6.3225   -0.3240 C.ar    1  LIG1        0.0005
     28 C          -7.6579    5.0876   -0.0133 C.ar    1  LIG1        0.0433
     29 C          -6.7046    4.2637    0.4924 C.ar    1  LIG1        0.1058
     30 O          -5.5110    4.8860    0.5083 O.2     1  LIG1       -0.4587
     31 H          -6.7299    3.2525    0.8580 H       1  LIG1        0.1041
     32 H          -7.4246    7.2105   -0.7519 H       1  LIG1        0.0667
     33 S          -9.3852    4.7811   -0.2501 S.3     1  LIG1       -0.1396
     34 H          -9.2658    3.4632   -0.4400 H       1  LIG1        0.1072
@<TRIPOS>BOND
     1    17    16    1
     2    32    27    1
     3    34    33    1
     4     6     1    1
     5     7     2    1
     6    24    20    1
     7    24    25    1
     8    27    28   ar
     9    27    26   ar
    10     1     2   ar
    11     1     5   ar
    12     2     3   ar
    13    33    28    1
    14    23    19    1
    15     5     4   ar
    16    19    20   ar
    17    19    18   ar
    18    20    21   ar
    19     3     8    1
    20     3     4   ar
    21     8     9    1
    22     4    10    1
    23    14    10   ar
    24    14    13   ar
    25    21    26    1
    26    21    22   ar
    27    18    13    1
    28    18    22   ar
    29    28    29   ar
    30    10    11   ar
    31    26    30   ar
    32    13    12   ar
    33    11    12   ar
    34    11    15    1
    35    12    16    1
    36    29    30   ar
    37    29    31    1
