@<TRIPOS>MOLECULE
mol_data/opt/m06hf/geoms/mol2/12ag12ag12ag12ag-.out
 34 37 0 0 0
SMALL
GASTEIGER

@<TRIPOS>ATOM
      1 C           0.5538    1.7625    0.2680 C.ar    1  LIG1        0.0938
      2 C           1.9018    1.8755    0.2509 C.ar    1  LIG1       -0.0099
      3 C           2.1746    3.2811    0.1132 C.ar    1  LIG1        0.0537
      4 C           0.9564    3.8953    0.0672 C.ar    1  LIG1        0.1828
      5 O          -0.0221    2.9783    0.1589 O.2     1  LIG1       -0.4587
      6 H          -0.1164    0.9258    0.3506 H       1  LIG1        0.1030
      7 H           2.6318    1.0883    0.3311 H       1  LIG1        0.0660
      8 S           3.7594    4.0636    0.1162 S.3     1  LIG1       -0.1389
      9 H           4.0543    3.8313   -1.1695 H       1  LIG1        0.1072
     10 C           0.5442    5.2893   -0.0303 C.ar    1  LIG1        0.1729
     11 C           1.2243    6.4629   -0.1440 C.ar    1  LIG1        0.0012
     12 C           0.2243    7.4903   -0.1576 C.ar    1  LIG1        0.0544
     13 C          -0.9792    6.8498   -0.0593 C.ar    1  LIG1        0.1838
     14 O          -0.7863    5.5221    0.0144 O.2     1  LIG1       -0.4475
     15 H           2.2902    6.5947   -0.2075 H       1  LIG1        0.0668
     16 S           0.4845    9.2298   -0.3411 S.3     1  LIG1       -0.1389
     17 H           0.9209    9.4441    0.9061 H       1  LIG1        0.1072
     18 C          -2.3566    7.3179   -0.0115 C.ar    1  LIG1        0.1729
     19 C          -2.9214    8.5500    0.1161 C.ar    1  LIG1        0.0012
     20 C          -4.3379    8.3305    0.0925 C.ar    1  LIG1        0.0544
     21 C          -4.5109    6.9812   -0.0356 C.ar    1  LIG1        0.1838
     22 O          -3.3158    6.3697   -0.0972 O.2     1  LIG1       -0.4475
     23 H          -2.4116    9.4925    0.2111 H       1  LIG1        0.0668
     24 S          -5.6090    9.5492    0.2534 S.3     1  LIG1       -0.1389
     25 H          -5.5090   10.0361   -0.9889 H       1  LIG1        0.1072
     26 C          -5.6903    6.1294   -0.1122 C.ar    1  LIG1        0.1719
     27 C          -6.9965    6.3188    0.2192 C.ar    1  LIG1        0.0005
     28 C          -7.6568    5.0852   -0.1064 C.ar    1  LIG1        0.0433
     29 C          -6.6967    4.2644   -0.6043 C.ar    1  LIG1        0.1058
     30 O          -5.5034    4.8872   -0.6018 O.2     1  LIG1       -0.4587
     31 H          -6.7168    3.2550   -0.9754 H       1  LIG1        0.1041
     32 H          -7.4341    7.2042    0.6461 H       1  LIG1        0.0667
     33 S          -9.3869    4.7765    0.1069 S.3     1  LIG1       -0.1396
     34 H          -9.2691    3.4579    0.2928 H       1  LIG1        0.1072
@<TRIPOS>BOND
     1     9     8    1
     2    25    24    1
     3    31    29    1
     4    29    30   ar
     5    29    28   ar
     6    30    26   ar
     7    16    12    1
     8    16    17    1
     9    15    11    1
    10    12    11   ar
    11    12    13   ar
    12    11    10   ar
    13    26    21    1
    14    26    27   ar
    15    28    33    1
    16    28    27   ar
    17    22    21   ar
    18    22    18   ar
    19    13    18    1
    20    13    14   ar
    21    21    20   ar
    22    10    14   ar
    23    10     4    1
    24    18    19   ar
    25     4     3   ar
    26     4     5   ar
    27    20    19   ar
    28    20    24    1
    29    33    34    1
    30     3     8    1
    31     3     2   ar
    32    19    23    1
    33     5     1   ar
    34    27    32    1
    35     2     1   ar
    36     2     7    1
    37     1     6    1
