@<TRIPOS>MOLECULE
mol_data/opt/m06hf/geoms/mol2/12ag12ag-12ag.out
 26 28 0 0 0
SMALL
GASTEIGER

@<TRIPOS>ATOM
      1 C           0.4053    1.7196   -0.1158 C.ar    1  LIG1        0.0938
      2 C           1.7455    1.8293    0.0315 C.ar    1  LIG1       -0.0099
      3 C           2.0220    3.2405    0.0589 C.ar    1  LIG1        0.0537
      4 C           0.8145    3.8611   -0.0868 C.ar    1  LIG1        0.1828
      5 O          -0.1619    2.9423   -0.1917 O.2     1  LIG1       -0.4587
      6 H          -0.2638    0.8806   -0.1865 H       1  LIG1        0.1030
      7 H           2.4665    1.0339    0.1102 H       1  LIG1        0.0660
      8 S           3.6067    4.0162    0.1822 S.3     1  LIG1       -0.1389
      9 H           3.7449    3.8809    1.5082 H       1  LIG1        0.1072
     10 C           0.4145    5.2604   -0.1519 C.ar    1  LIG1        0.1729
     11 C           1.1079    6.4276   -0.2416 C.ar    1  LIG1        0.0012
     12 C           0.1193    7.4660   -0.2572 C.ar    1  LIG1        0.0544
     13 C          -1.0925    6.8378   -0.1887 C.ar    1  LIG1        0.1838
     14 O          -0.9148    5.5072   -0.1245 O.2     1  LIG1       -0.4475
     15 H           2.1757    6.5477   -0.2978 H       1  LIG1        0.0668
     16 S           0.4033    9.2023   -0.4265 S.3     1  LIG1       -0.1389
     17 H           0.7364    9.4293    0.8506 H       1  LIG1        0.1072
     18 C          -2.4684    7.3177   -0.1734 C.ar    1  LIG1        0.1719
     19 C          -3.0310    8.5492   -0.3093 C.ar    1  LIG1        0.0005
     20 C          -4.4475    8.3378   -0.1891 C.ar    1  LIG1        0.0433
     21 C          -4.6158    7.0029   -0.0029 C.ar    1  LIG1        0.1058
     22 O          -3.4271    6.3808    0.0093 O.2     1  LIG1       -0.4587
     23 H          -5.4928    6.3934    0.1268 H       1  LIG1        0.1041
     24 H          -2.5227    9.4810   -0.4836 H       1  LIG1        0.0667
     25 S          -5.7441    9.5320   -0.3465 S.3     1  LIG1       -0.1396
     26 H          -5.6534   10.0290    0.8929 H       1  LIG1        0.1072
@<TRIPOS>BOND
     1    24    19    1
     2    16    12    1
     3    16    17    1
     4    25    20    1
     5    25    26    1
     6    19    20   ar
     7    19    18   ar
     8    15    11    1
     9    12    11   ar
    10    12    13   ar
    11    11    10   ar
    12     5     1   ar
    13     5     4   ar
    14    20    21   ar
    15    13    18    1
    16    13    14   ar
    17     6     1    1
    18    18    22   ar
    19    10    14   ar
    20    10     4    1
    21     1     2   ar
    22     4     3   ar
    23    21    22   ar
    24    21    23    1
    25     2     3   ar
    26     2     7    1
    27     3     8    1
    28     8     9    1
