@<TRIPOS>MOLECULE
mol_data/opt/m06hf/geoms/mol2/12ag12ag12ag.out
 26 28 0 0 0
SMALL
GASTEIGER

@<TRIPOS>ATOM
      1 C           0.3364    1.7402   -0.0723 C.ar    1  LIG1        0.0938
      2 C           1.6798    1.8125    0.0705 C.ar    1  LIG1       -0.0099
      3 C           1.9931    3.2152    0.1229 C.ar    1  LIG1        0.0537
      4 C           0.7997    3.8692    0.0131 C.ar    1  LIG1        0.1828
      5 O          -0.2006    2.9783   -0.1054 O.2     1  LIG1       -0.4587
      6 H          -0.3543    0.9204   -0.1588 H       1  LIG1        0.1030
      7 H           2.3796    0.9974    0.1392 H       1  LIG1        0.0660
      8 S           3.5866    3.9413    0.3695 S.3     1  LIG1       -0.1389
      9 H           3.9983    3.8389   -0.9000 H       1  LIG1        0.1072
     10 C           0.4314    5.2785   -0.0001 C.ar    1  LIG1        0.1729
     11 C           1.1504    6.4338    0.0026 C.ar    1  LIG1        0.0012
     12 C           0.1837    7.4924   -0.0123 C.ar    1  LIG1        0.0544
     13 C          -1.0417    6.8874   -0.0335 C.ar    1  LIG1        0.1838
     14 O          -0.8923    5.5519   -0.0274 O.2     1  LIG1       -0.4475
     15 H           2.2214    6.5338    0.0175 H       1  LIG1        0.0668
     16 S           0.5065    9.2289   -0.0753 S.3     1  LIG1       -0.1389
     17 H           0.7913    9.3815    1.2241 H       1  LIG1        0.1072
     18 C          -2.4080    7.3941   -0.0549 C.ar    1  LIG1        0.1719
     19 C          -2.9364    8.6389   -0.2077 C.ar    1  LIG1        0.0005
     20 C          -4.3601    8.4637   -0.1227 C.ar    1  LIG1        0.0433
     21 C          -4.5654    7.1365    0.0729 C.ar    1  LIG1        0.1058
     22 O          -3.3871    6.4831    0.1095 O.2     1  LIG1       -0.4587
     23 H          -5.4531    6.5420    0.1962 H       1  LIG1        0.1041
     24 H          -2.3960    9.5552   -0.3698 H       1  LIG1        0.0667
     25 S          -5.5300    9.7841   -0.2420 S.3     1  LIG1       -0.1396
     26 H          -6.6032    9.0080   -0.4262 H       1  LIG1        0.1072
@<TRIPOS>BOND
     1     9     8    1
     2    26    25    1
     3    24    19    1
     4    25    20    1
     5    19    20   ar
     6    19    18   ar
     7     6     1    1
     8    20    21   ar
     9     5     1   ar
    10     5     4   ar
    11    16    12    1
    12    16    17    1
    13     1     2   ar
    14    18    13    1
    15    18    22   ar
    16    13    14   ar
    17    13    12   ar
    18    14    10   ar
    19    12    11   ar
    20    10    11   ar
    21    10     4    1
    22    11    15    1
    23     4     3   ar
    24     2     3   ar
    25     2     7    1
    26    21    22   ar
    27    21    23    1
    28     3     8    1
