@<TRIPOS>MOLECULE
mol_data/opt/m06hf/geoms/mol2/12ag12ag-12ag12ag.out
 34 37 0 0 0
SMALL
GASTEIGER

@<TRIPOS>ATOM
      1 C           0.6261    1.7288    0.2082 C.ar    1  LIG1        0.0938
      2 C           1.9613    1.8567    0.0272 C.ar    1  LIG1       -0.0099
      3 C           2.2127    3.2708   -0.0424 C.ar    1  LIG1        0.0537
      4 C           0.9978    3.8745    0.1139 C.ar    1  LIG1        0.1828
      5 O           0.0400    2.9435    0.2627 O.2     1  LIG1       -0.4587
      6 H          -0.0271    0.8816    0.3149 H       1  LIG1        0.1030
      7 H           2.6959    1.0730   -0.0469 H       1  LIG1        0.0660
      8 S           3.7812    4.0675   -0.2224 S.3     1  LIG1       -0.1389
      9 H           3.8614    3.9604   -1.5549 H       1  LIG1        0.1072
     10 C           0.5742    5.2681    0.1476 C.ar    1  LIG1        0.1729
     11 C           1.2458    6.4521    0.1410 C.ar    1  LIG1        0.0012
     12 C           0.2373    7.4700    0.1800 C.ar    1  LIG1        0.0544
     13 C          -0.9619    6.8145    0.2201 C.ar    1  LIG1        0.1838
     14 O          -0.7590    5.4871    0.1976 O.2     1  LIG1       -0.4475
     15 H           2.3117    6.5969    0.1171 H       1  LIG1        0.0668
     16 S           0.4984    9.2189    0.2281 S.3     1  LIG1       -0.1389
     17 H           0.5523    9.4033   -1.0982 H       1  LIG1        0.1072
     18 C          -2.3424    7.2716    0.2716 C.ar    1  LIG1        0.1729
     19 C          -2.9167    8.4879    0.4813 C.ar    1  LIG1        0.0012
     20 C          -4.3300    8.2705    0.3847 C.ar    1  LIG1        0.0544
     21 C          -4.4930    6.9361    0.1368 C.ar    1  LIG1        0.1838
     22 O          -3.2948    6.3340    0.0652 O.2     1  LIG1       -0.4475
     23 H          -2.4153    9.4178    0.6849 H       1  LIG1        0.0668
     24 S          -5.6043    9.4785    0.6029 S.3     1  LIG1       -0.1389
     25 H          -5.6318    9.9022   -0.6667 H       1  LIG1        0.1072
     26 C          -5.6651    6.0932   -0.0554 C.ar    1  LIG1        0.1719
     27 C          -7.0029    6.3111    0.0640 C.ar    1  LIG1        0.0005
     28 C          -7.6246    5.0571   -0.2626 C.ar    1  LIG1        0.0433
     29 C          -6.6134    4.1997   -0.5568 C.ar    1  LIG1        0.1058
     30 O          -5.4286    4.8169   -0.4355 O.2     1  LIG1       -0.4587
     31 H          -6.6027    3.1669   -0.8583 H       1  LIG1        0.1041
     32 H          -7.4893    7.2281    0.3477 H       1  LIG1        0.0667
     33 S          -9.3525    4.6867   -0.3543 S.3     1  LIG1       -0.1396
     34 H          -9.5541    4.5619    0.9634 H       1  LIG1        0.1072
@<TRIPOS>BOND
     1     9     8    1
     2    17    16    1
     3    31    29    1
     4    25    24    1
     5    29    30   ar
     6    29    28   ar
     7    30    26   ar
     8    33    28    1
     9    33    34    1
    10    28    27   ar
    11     8     3    1
    12    26    27   ar
    13    26    21    1
    14     7     2    1
    15     3     2   ar
    16     3     4   ar
    17     2     1   ar
    18    27    32    1
    19    22    21   ar
    20    22    18   ar
    21     4    10    1
    22     4     5   ar
    23    15    11    1
    24    21    20   ar
    25    11    10   ar
    26    11    12   ar
    27    10    14   ar
    28    12    13   ar
    29    12    16    1
    30    14    13   ar
    31     1     5   ar
    32     1     6    1
    33    13    18    1
    34    18    19   ar
    35    20    19   ar
    36    20    24    1
    37    19    23    1
