@<TRIPOS>MOLECULE
mol_data/opt/m06hf/geoms/mol2/12ag12ag12ag-.out
 26 28 0 0 0
SMALL
GASTEIGER

@<TRIPOS>ATOM
      1 C           0.3385    1.7407   -0.0664 C.ar    1  LIG1        0.0938
      2 C           1.6819    1.8138    0.0770 C.ar    1  LIG1       -0.0099
      3 C           1.9944    3.2167    0.1278 C.ar    1  LIG1        0.0537
      4 C           0.8007    3.8700    0.0167 C.ar    1  LIG1        0.1828
      5 O          -0.1991    2.9785   -0.1012 O.2     1  LIG1       -0.4587
      6 H          -0.3517    0.9204   -0.1523 H       1  LIG1        0.1030
      7 H           2.3820    0.9992    0.1469 H       1  LIG1        0.0660
      8 S           3.5874    3.9440    0.3743 S.3     1  LIG1       -0.1389
      9 H           3.9997    3.8403   -0.8949 H       1  LIG1        0.1072
     10 C           0.4317    5.2791    0.0016 C.ar    1  LIG1        0.1729
     11 C           1.1501    6.4348    0.0034 C.ar    1  LIG1        0.0012
     12 C           0.1828    7.4929   -0.0133 C.ar    1  LIG1        0.0544
     13 C          -1.0423    6.8873   -0.0343 C.ar    1  LIG1        0.1838
     14 O          -0.8922    5.5518   -0.0266 O.2     1  LIG1       -0.4475
     15 H           2.2211    6.5353    0.0186 H       1  LIG1        0.0668
     16 S           0.5048    9.2295   -0.0782 S.3     1  LIG1       -0.1389
     17 H           0.7890    9.3838    1.2212 H       1  LIG1        0.1072
     18 C          -2.4087    7.3932   -0.0569 C.ar    1  LIG1        0.1719
     19 C          -2.9377    8.6376   -0.2115 C.ar    1  LIG1        0.0005
     20 C          -4.3614    8.4618   -0.1270 C.ar    1  LIG1        0.0433
     21 C          -4.5661    7.1347    0.0701 C.ar    1  LIG1        0.1058
     22 O          -3.3875    6.4819    0.1081 O.2     1  LIG1       -0.4587
     23 H          -5.4535    6.5399    0.1938 H       1  LIG1        0.1041
     24 H          -2.3977    9.5539   -0.3744 H       1  LIG1        0.0667
     25 S          -5.5319    9.7814   -0.2483 S.3     1  LIG1       -0.1396
     26 H          -6.6046    9.0046   -0.4321 H       1  LIG1        0.1072
@<TRIPOS>BOND
     1     9     8    1
     2    26    25    1
     3    24    19    1
     4    25    20    1
     5    19    20   ar
     6    19    18   ar
     7     6     1    1
     8    20    21   ar
     9     5     1   ar
    10     5     4   ar
    11    16    12    1
    12    16    17    1
    13     1     2   ar
    14    18    13    1
    15    18    22   ar
    16    13    14   ar
    17    13    12   ar
    18    14    10   ar
    19    12    11   ar
    20    10    11   ar
    21    10     4    1
    22    11    15    1
    23     4     3   ar
    24    21    22   ar
    25    21    23    1
    26     2     3   ar
    27     2     7    1
    28     3     8    1
