@<TRIPOS>MOLECULE
mol_data/opt/m06hf/geoms/mol2/12ag12ag12ag12ag.out
 34 37 0 0 0
SMALL
GASTEIGER

@<TRIPOS>ATOM
      1 C           0.5494    1.7573    0.2393 C.ar    1  LIG1        0.0938
      2 C           1.8976    1.8690    0.2239 C.ar    1  LIG1       -0.0099
      3 C           2.1719    3.2753    0.0974 C.ar    1  LIG1        0.0537
      4 C           0.9544    3.8912    0.0556 C.ar    1  LIG1        0.1828
      5 O          -0.0251    2.9746    0.1396 O.2     1  LIG1       -0.4587
      6 H          -0.1217    0.9207    0.3150 H       1  LIG1        0.1030
      7 H           2.6267    1.0804    0.2982 H       1  LIG1        0.0660
      8 S           3.7576    4.0561    0.1073 S.3     1  LIG1       -0.1389
      9 H           4.0529    3.8336   -1.1801 H       1  LIG1        0.1072
     10 C           0.5438    5.2864   -0.0312 C.ar    1  LIG1        0.1729
     11 C           1.2252    6.4600   -0.1354 C.ar    1  LIG1        0.0012
     12 C           0.2263    7.4886   -0.1414 C.ar    1  LIG1        0.0544
     13 C          -0.9779    6.8487   -0.0489 C.ar    1  LIG1        0.1838
     14 O          -0.7865    5.5202    0.0145 O.2     1  LIG1       -0.4475
     15 H           2.2913    6.5913   -0.1973 H       1  LIG1        0.0668
     16 S           0.4885    9.2292   -0.3111 S.3     1  LIG1       -0.1389
     17 H           0.9242    9.4334    0.9381 H       1  LIG1        0.1072
     18 C          -2.3548    7.3179    0.0016 C.ar    1  LIG1        0.1729
     19 C          -2.9185    8.5496    0.1382 C.ar    1  LIG1        0.0012
     20 C          -4.3351    8.3317    0.1120 C.ar    1  LIG1        0.0544
     21 C          -4.5095    6.9836   -0.0263 C.ar    1  LIG1        0.1838
     22 O          -3.3150    6.3713   -0.0917 O.2     1  LIG1       -0.4475
     23 H          -2.4077    9.4908    0.2406 H       1  LIG1        0.0668
     24 S          -5.6051    9.5505    0.2811 S.3     1  LIG1       -0.1389
     25 H          -5.5038   10.0464   -0.9576 H       1  LIG1        0.1072
     26 C          -5.6897    6.1337   -0.1100 C.ar    1  LIG1        0.1719
     27 C          -6.9960    6.3220    0.2217 C.ar    1  LIG1        0.0005
     28 C          -7.6573    5.0914   -0.1132 C.ar    1  LIG1        0.0433
     29 C          -6.6976    4.2732   -0.6161 C.ar    1  LIG1        0.1058
     30 O          -5.5037    4.8948   -0.6083 O.2     1  LIG1       -0.4587
     31 H          -6.7185    3.2665   -0.9945 H       1  LIG1        0.1041
     32 H          -7.4330    7.2048    0.6546 H       1  LIG1        0.0667
     33 S          -9.3878    4.7830    0.0967 S.3     1  LIG1       -0.1396
     34 H          -9.2716    3.4629    0.2725 H       1  LIG1        0.1072
@<TRIPOS>BOND
     1     9     8    1
     2    31    29    1
     3    25    24    1
     4    29    30   ar
     5    29    28   ar
     6    30    26   ar
     7    16    12    1
     8    16    17    1
     9    15    11    1
    10    12    11   ar
    11    12    13   ar
    12    11    10   ar
    13    28    33    1
    14    28    27   ar
    15    26    21    1
    16    26    27   ar
    17    22    21   ar
    18    22    18   ar
    19    13    18    1
    20    13    14   ar
    21    10    14   ar
    22    10     4    1
    23    21    20   ar
    24    18    19   ar
    25     4     3   ar
    26     4     5   ar
    27    33    34    1
    28     3     8    1
    29     3     2   ar
    30    20    19   ar
    31    20    24    1
    32    19    23    1
    33     5     1   ar
    34    27    32    1
    35     2     1   ar
    36     2     7    1
    37     1     6    1
