@<TRIPOS>MOLECULE
mol_data/opt/m06hf/geoms/mol2/12ah12hl12if-12fi-.out
 46 49 0 0 0
SMALL
GASTEIGER

@<TRIPOS>ATOM
      1 C           1.4556    1.7105    1.4927 C.ar    1  LIG1        0.0946
      2 C           2.5354    1.7941    0.6777 C.ar    1  LIG1       -0.0024
      3 C           2.4716    3.1049    0.0862 C.ar    1  LIG1        0.0741
      4 C           1.3648    3.7032    0.6128 C.ar    1  LIG1        0.1921
      5 O           0.7417    2.8500    1.4571 O.2     1  LIG1       -0.4579
      6 H           1.0778    0.9297    2.1284 H       1  LIG1        0.1030
      7 H           3.2786    1.0343    0.5029 H       1  LIG1        0.0668
      8 N           3.3386    3.6939   -0.8732 N.pl3   1  LIG1       -0.3550
      9 H           4.1844    3.1481   -0.9897 H       1  LIG1        0.1424
     10 H           2.8777    3.7825   -1.7750 H       1  LIG1        0.1424
     11 C           0.8476    5.0435    0.4346 C.ar    1  LIG1        0.1968
     12 C           1.5116    6.2127    0.1946 C.ar    1  LIG1        0.1172
     13 C           0.4775    7.2055    0.0737 C.ar    1  LIG1        0.1902
     14 C          -0.7133    6.5706    0.2785 C.ar    1  LIG1        0.2143
     15 O          -0.4969    5.2555    0.4794 O.2     1  LIG1       -0.4428
     16 N           2.8705    6.4586    0.1385 N.pl3   1  LIG1       -0.3521
     17 H           3.4106    5.6756   -0.2285 H       1  LIG1        0.1425
     18 H           3.0893    7.3582   -0.2669 H       1  LIG1        0.1425
     19 O           0.7365    8.5150   -0.1982 O.3     1  LIG1       -0.4896
     20 C           0.1418    8.9900   -1.4074 C.3     1  LIG1        0.0791
     21 H           0.4901   10.0123   -1.5340 H       1  LIG1        0.0660
     22 H           0.4646    8.3708   -2.2464 H       1  LIG1        0.0660
     23 H          -0.9465    8.9694   -1.3288 H       1  LIG1        0.0660
     24 C          -2.0837    7.0585    0.3257 C.ar    1  LIG1        0.1810
     25 C          -2.6049    8.2492    0.7404 C.ar    1  LIG1        0.0407
     26 C          -4.0206    8.1180    0.5393 C.ar    1  LIG1        0.1696
     27 C          -4.2353    6.8683    0.0328 C.ar    1  LIG1        0.2157
     28 O          -3.0518    6.2222   -0.1083 O.2     1  LIG1       -0.4443
     29 C          -1.9232    9.4450    1.3477 C.3     1  LIG1       -0.0325
     30 H          -2.3461    9.6389    2.3338 H       1  LIG1        0.0280
     31 H          -2.0969   10.3266    0.7274 H       1  LIG1        0.0280
     32 H          -0.8515    9.2717    1.4317 H       1  LIG1        0.0280
     33 O          -4.8982    9.0896    0.8620 O.3     1  LIG1       -0.5029
     34 H          -5.7883    8.8536    0.5509 H       1  LIG1        0.2923
     35 C          -5.4595    6.1873   -0.3371 C.ar    1  LIG1        0.2147
     36 C          -6.7193    6.6581   -0.5390 C.ar    1  LIG1        0.1688
     37 C          -7.5640    5.5327   -0.8333 C.ar    1  LIG1        0.0295
     38 C          -6.7253    4.4690   -0.7967 C.ar    1  LIG1        0.0993
     39 O          -5.4632    4.8497   -0.4936 O.2     1  LIG1       -0.4556
     40 H          -6.8787    3.4165   -0.9590 H       1  LIG1        0.1033
     41 O          -7.1095    7.9764   -0.4209 O.3     1  LIG1       -0.5030
     42 H          -7.3310    8.3330   -1.2899 H       1  LIG1        0.2923
     43 C          -9.0433    5.5756   -1.1108 C.3     1  LIG1       -0.0332
     44 H          -9.4316    4.5661   -1.2383 H       1  LIG1        0.0280
     45 H          -9.2497    6.1420   -2.0206 H       1  LIG1        0.0280
     46 H          -9.5641    6.0537   -0.2810 H       1  LIG1        0.0280
@<TRIPOS>BOND
     1    22    20    1
     2    45    43    1
     3    10     8    1
     4    21    20    1
     5    20    23    1
     6    20    19    1
     7    42    41    1
     8    44    43    1
     9    43    37    1
    10    43    46    1
    11     9     8    1
    12    40    38    1
    13     8     3    1
    14    37    38   ar
    15    37    36   ar
    16    38    39   ar
    17    36    41    1
    18    36    35   ar
    19    39    35   ar
    20    35    27    1
    21    18    16    1
    22    17    16    1
    23    19    13    1
    24    28    27   ar
    25    28    24   ar
    26    27    26   ar
    27    13    12   ar
    28    13    14   ar
    29     3     4   ar
    30     3     2   ar
    31    16    12    1
    32    12    11   ar
    33    14    24    1
    34    14    15   ar
    35    24    25   ar
    36    11    15   ar
    37    11     4    1
    38     7     2    1
    39    26    25   ar
    40    26    33    1
    41    34    33    1
    42     4     5   ar
    43     2     1   ar
    44    31    29    1
    45    25    29    1
    46    29    32    1
    47    29    30    1
    48     5     1   ar
    49     1     6    1
