@<TRIPOS>MOLECULE
mol_data/opt/m06hf/geoms/mol2/12ah12he-6ah13aa.out
 41 44 0 0 0
SMALL
GASTEIGER

@<TRIPOS>ATOM
      1 C           0.6158    1.6067   -0.6894 C.ar    1  LIG1        0.0946
      2 C           1.7626    1.7082    0.0254 C.ar    1  LIG1       -0.0024
      3 C           1.9190    3.1109    0.3276 C.ar    1  LIG1        0.0741
      4 C           0.8442    3.7268   -0.2523 C.ar    1  LIG1        0.1920
      5 O           0.0512    2.8091   -0.8734 O.2     1  LIG1       -0.4579
      6 H           0.0988    0.7655   -1.1166 H       1  LIG1        0.1030
      7 H           2.4132    0.9054    0.3277 H       1  LIG1        0.0668
      8 N           2.9016    3.6928    1.1142 N.pl3   1  LIG1       -0.3550
      9 H           3.7490    3.1476    1.1822 H       1  LIG1        0.1424
     10 H           3.0725    4.6751    0.9018 H       1  LIG1        0.1424
     11 C           0.4795    5.1256   -0.2860 C.ar    1  LIG1        0.1941
     12 C           1.2558    6.2428   -0.2973 C.ar    1  LIG1        0.0904
     13 C           0.3467    7.3611   -0.2328 C.ar    1  LIG1        0.0918
     14 C          -0.9151    6.8260   -0.2111 C.ar    1  LIG1        0.1545
     15 O          -0.8294    5.4847   -0.2480 O.2     1  LIG1       -0.4484
     16 N           2.6647    6.2949   -0.3552 N.pl3   1  LIG1       -0.3540
     17 H           3.0138    5.9049   -1.2265 H       1  LIG1        0.1425
     18 H           2.9924    7.2503   -0.2537 H       1  LIG1        0.1425
     19 C           0.7650    8.7284   -0.2134 C.1     1  LIG1       -0.0640
     20 C           1.1856    9.8561   -0.1997 C.1     1  LIG1       -0.1137
     21 H           1.5502   10.8575   -0.1787 H       1  LIG1        0.1232
     22 C          -3.3719    6.5596   -0.0759 C.ar    1  LIG1        0.0391
     23 C          -2.2596    7.4025   -0.1576 C.ar    1  LIG1        0.0384
     24 C          -2.4734    8.7793   -0.2022 C.ar    1  LIG1       -0.0267
     25 C          -3.7709    9.2777   -0.1360 C.ar    1  LIG1        0.0530
     26 C          -4.8214    8.3478    0.0081 C.ar    1  LIG1        0.1076
     27 N          -4.6070    7.0315    0.0040 N.ar    1  LIG1       -0.2510
     28 H          -1.6371    9.4603   -0.3011 H       1  LIG1        0.0644
     29 H          -3.2477    5.4851   -0.0684 H       1  LIG1        0.0837
     30 N          -4.0364   10.6429   -0.1948 N.pl3   1  LIG1       -0.3563
     31 H          -3.2740   11.1965   -0.5612 H       1  LIG1        0.1424
     32 H          -4.9213   10.8612   -0.6383 H       1  LIG1        0.1424
     33 C          -6.2297    8.7580    0.1315 C.ar    1  LIG1        0.0667
     34 C          -6.8765    9.9296    0.4955 C.ar    1  LIG1       -0.0349
     35 C          -8.2705    9.6610    0.4715 C.ar    1  LIG1       -0.0438
     36 C          -8.4251    8.3433    0.1003 C.ar    1  LIG1        0.0022
     37 N          -7.1897    7.8176   -0.0984 N.ar    1  LIG1       -0.3594
     38 H          -6.9436    6.8646   -0.3268 H       1  LIG1        0.1654
     39 H          -9.3139    7.7518   -0.0358 H       1  LIG1        0.0807
     40 H          -6.4026   10.8437    0.8107 H       1  LIG1        0.0639
     41 H          -9.0639   10.3498    0.7064 H       1  LIG1        0.0633
@<TRIPOS>BOND
     1    17    16    1
     2     6     1    1
     3     5     1   ar
     4     5     4   ar
     5     1     2   ar
     6    32    30    1
     7    31    30    1
     8    16    12    1
     9    16    18    1
    10    38    37    1
    11    28    24    1
    12    12    11   ar
    13    12    13   ar
    14    11     4    1
    15    11    15   ar
    16     4     3   ar
    17    15    14   ar
    18    13    19    1
    19    13    14   ar
    20    19    20    3
    21    14    23    1
    22    24    23   ar
    23    24    25   ar
    24    20    21    1
    25    30    25    1
    26    23    22   ar
    27    25    26   ar
    28    37    36   ar
    29    37    33   ar
    30    22    29    1
    31    22    27   ar
    32    39    36    1
    33    27    26   ar
    34    26    33    1
    35     2     3   ar
    36     2     7    1
    37    36    35   ar
    38    33    34   ar
    39     3     8    1
    40    35    34   ar
    41    35    41    1
    42    34    40    1
    43    10     8    1
    44     8     9    1
