@<TRIPOS>MOLECULE
mol_data/opt/m06hf/geoms/mol2/12ai12ai-.out
 22 23 0 0 0
SMALL
GASTEIGER

@<TRIPOS>ATOM
      1 C           0.1324    1.8127   -0.0983 C.ar    1  LIG1        0.0930
      2 C           1.4834    1.7493   -0.0627 C.ar    1  LIG1       -0.0203
      3 C           1.9578    3.1122   -0.0163 C.ar    1  LIG1       -0.0017
      4 C           0.8306    3.8759   -0.0287 C.ar    1  LIG1        0.1725
      5 O          -0.2760    3.0974   -0.0782 O.2     1  LIG1       -0.4596
      6 H          -0.6412    1.0666   -0.1379 H       1  LIG1        0.1029
      7 H           2.0899    0.8585   -0.0678 H       1  LIG1        0.0652
      8 C           3.3992    3.5527    0.0341 C.3     1  LIG1       -0.0360
      9 H           3.4666    4.6370    0.0624 H       1  LIG1        0.0279
     10 H           3.9297    3.1849   -0.8454 H       1  LIG1        0.0279
     11 H           3.8810    3.1417    0.9226 H       1  LIG1        0.0279
     12 C           0.5734    5.3095   -0.0007 C.ar    1  LIG1        0.1702
     13 C          -0.5877    6.0142   -0.0154 C.ar    1  LIG1       -0.0099
     14 C          -0.2119    7.4063    0.0290 C.ar    1  LIG1       -0.0120
     15 C           1.1417    7.4111    0.0664 C.ar    1  LIG1        0.0956
     16 O           1.6299    6.1480    0.0489 O.2     1  LIG1       -0.4596
     17 H           1.8686    8.2033    0.1058 H       1  LIG1        0.1032
     18 H          -1.5808    5.5990   -0.0529 H       1  LIG1        0.0659
     19 C          -1.1361    8.5970    0.0327 C.3     1  LIG1       -0.0367
     20 H          -1.7976    8.5596    0.8990 H       1  LIG1        0.0278
     21 H          -1.7488    8.6029   -0.8695 H       1  LIG1        0.0278
     22 H          -0.5628    9.5227    0.0712 H       1  LIG1        0.0278
@<TRIPOS>BOND
     1    21    19    1
     2    10     8    1
     3     6     1    1
     4     1     5   ar
     5     1     2   ar
     6     5     4   ar
     7     7     2    1
     8     2     3   ar
     9    18    13    1
    10     4     3   ar
    11     4    12    1
    12     3     8    1
    13    13    12   ar
    14    13    14   ar
    15    12    16   ar
    16    14    19    1
    17    14    15   ar
    18    19    22    1
    19    19    20    1
    20     8     9    1
    21     8    11    1
    22    16    15   ar
    23    15    17    1
