@<TRIPOS>MOLECULE
mol_data/opt/m06hf/geoms/mol2/12ai12ai.out
 22 23 0 0 0
SMALL
GASTEIGER

@<TRIPOS>ATOM
      1 C           0.1835    1.7139   -0.2793 C.ar    1  LIG1        0.0930
      2 C           1.5280    1.7450   -0.1189 C.ar    1  LIG1       -0.0203
      3 C           1.8843    3.1320    0.0415 C.ar    1  LIG1       -0.0017
      4 C           0.7077    3.8120   -0.0499 C.ar    1  LIG1        0.1725
      5 O          -0.3243    2.9602   -0.2423 O.2     1  LIG1       -0.4596
      6 H          -0.5234    0.9158   -0.4219 H       1  LIG1        0.1029
      7 H           2.1964    0.9006   -0.1003 H       1  LIG1        0.0652
      8 C           3.2575    3.7041    0.2823 C.3     1  LIG1       -0.0360
      9 H           3.1786    4.6431    0.8310 H       1  LIG1        0.0279
     10 H           3.7730    3.8918   -0.6615 H       1  LIG1        0.0279
     11 H           3.8533    3.0028    0.8660 H       1  LIG1        0.0279
     12 C           0.4090    5.2377    0.0114 C.ar    1  LIG1        0.1702
     13 C           1.1399    6.3379   -0.3157 C.ar    1  LIG1       -0.0099
     14 C           0.3145    7.4776   -0.0034 C.ar    1  LIG1       -0.0120
     15 C          -0.8424    6.9562    0.4738 C.ar    1  LIG1        0.0956
     16 O          -0.7965    5.6070    0.4914 O.2     1  LIG1       -0.4596
     17 H          -1.7540    7.4085    0.8244 H       1  LIG1        0.1032
     18 H           2.1252    6.3448   -0.7520 H       1  LIG1        0.0659
     19 C           0.6603    8.9334   -0.1851 C.3     1  LIG1       -0.0367
     20 H          -0.1694    9.5616    0.1380 H       1  LIG1        0.0278
     21 H           0.8708    9.1467   -1.2336 H       1  LIG1        0.0278
     22 H           1.5419    9.1921    0.4026 H       1  LIG1        0.0278
@<TRIPOS>BOND
     1    21    19    1
     2    18    13    1
     3    10     8    1
     4     6     1    1
     5    13    14   ar
     6    13    12   ar
     7     1     5   ar
     8     1     2   ar
     9     5     4   ar
    10    19    14    1
    11    19    20    1
    12    19    22    1
    13     2     7    1
    14     2     3   ar
    15     4    12    1
    16     4     3   ar
    17    14    15   ar
    18    12    16   ar
    19     3     8    1
    20     8     9    1
    21     8    11    1
    22    15    16   ar
    23    15    17    1
