@<TRIPOS>MOLECULE
mol_data/opt/m06hf/geoms/mol2/12ai12ai12ai12ai.out
 42 45 0 0 0
SMALL
GASTEIGER

@<TRIPOS>ATOM
      1 C           1.0093    1.7433   -1.2856 C.ar    1  LIG1        0.0930
      2 C           2.1671    1.7888   -0.5842 C.ar    1  LIG1       -0.0203
      3 C           2.2659    3.1230   -0.0518 C.ar    1  LIG1       -0.0017
      4 C           1.1488    3.7641   -0.4976 C.ar    1  LIG1        0.1726
      5 O           0.3852    2.9348   -1.2424 O.2     1  LIG1       -0.4596
      6 H           0.5141    0.9660   -1.8402 H       1  LIG1        0.1029
      7 H           2.8691    0.9845   -0.4405 H       1  LIG1        0.0652
      8 C           3.3547    3.6780    0.8296 C.3     1  LIG1       -0.0360
      9 H           2.9447    4.4329    1.5014 H       1  LIG1        0.0279
     10 H           4.1478    4.1327    0.2326 H       1  LIG1        0.0279
     11 H           3.7904    2.8772    1.4264 H       1  LIG1        0.0279
     12 C           0.6826    5.1314   -0.3125 C.ar    1  LIG1        0.1712
     13 C           1.3417    6.2922   -0.0413 C.ar    1  LIG1       -0.0091
     14 C           0.3372    7.3110    0.0798 C.ar    1  LIG1       -0.0009
     15 C          -0.8457    6.6726   -0.1523 C.ar    1  LIG1        0.1736
     16 O          -0.6441    5.3569   -0.3843 O.2     1  LIG1       -0.4484
     17 H           2.4079    6.4200    0.0481 H       1  LIG1        0.0659
     18 C           0.5490    8.7681    0.3997 C.3     1  LIG1       -0.0360
     19 H          -0.3143    9.1631    0.9360 H       1  LIG1        0.0279
     20 H           0.6927    9.3502   -0.5126 H       1  LIG1        0.0279
     21 H           1.4341    8.8837    1.0246 H       1  LIG1        0.0279
     22 C          -2.2130    7.1680   -0.2004 C.ar    1  LIG1        0.1713
     23 C          -2.7287    8.4011   -0.4664 C.ar    1  LIG1       -0.0091
     24 C          -4.1526    8.2852   -0.3204 C.ar    1  LIG1       -0.0009
     25 C          -4.3715    6.9785    0.0030 C.ar    1  LIG1        0.1736
     26 O          -3.2055    6.3008    0.0807 O.2     1  LIG1       -0.4484
     27 H          -2.1752    9.2811   -0.7490 H       1  LIG1        0.0659
     28 C          -5.1813    9.3740   -0.4840 C.3     1  LIG1       -0.0360
     29 H          -6.0532    9.1595    0.1350 H       1  LIG1        0.0279
     30 H          -5.5014    9.4543   -1.5246 H       1  LIG1        0.0279
     31 H          -4.7591   10.3310   -0.1786 H       1  LIG1        0.0279
     32 C          -5.6012    6.2388    0.2515 C.ar    1  LIG1        0.1702
     33 C          -6.8745    6.4047   -0.1981 C.ar    1  LIG1       -0.0099
     34 C          -7.6599    5.3701    0.4261 C.ar    1  LIG1       -0.0120
     35 C          -6.7822    4.6712    1.1875 C.ar    1  LIG1        0.0956
     36 O          -5.5393    5.1878    1.0944 O.2     1  LIG1       -0.4596
     37 H          -6.8960    3.8106    1.8237 H       1  LIG1        0.1032
     38 H          -7.2122    7.1423   -0.9071 H       1  LIG1        0.0659
     39 C          -9.1353    5.1145    0.2543 C.3     1  LIG1       -0.0367
     40 H          -9.4365    4.2379    0.8271 H       1  LIG1        0.0278
     41 H          -9.3715    4.9411   -0.7961 H       1  LIG1        0.0278
     42 H          -9.7131    5.9720    0.6009 H       1  LIG1        0.0278
@<TRIPOS>BOND
     1     6     1    1
     2    30    28    1
     3     1     5   ar
     4     1     2   ar
     5     5     4   ar
     6    38    33    1
     7    41    39    1
     8    27    23    1
     9     2     7    1
    10     2     3   ar
    11    20    18    1
    12     4    12    1
    13     4     3   ar
    14    28    24    1
    15    28    31    1
    16    28    29    1
    17    23    24   ar
    18    23    22   ar
    19    16    12   ar
    20    16    15   ar
    21    24    25   ar
    22    12    13   ar
    23    22    15    1
    24    22    26   ar
    25    33    32   ar
    26    33    34   ar
    27    15    14   ar
    28     3     8    1
    29    13    17    1
    30    13    14   ar
    31    25    26   ar
    32    25    32    1
    33    14    18    1
    34    10     8    1
    35    32    36   ar
    36    39    34    1
    37    39    42    1
    38    39    40    1
    39    18    19    1
    40    18    21    1
    41    34    35   ar
    42     8    11    1
    43     8     9    1
    44    36    35   ar
    45    35    37    1
