@<TRIPOS>MOLECULE
mol_data/opt/m06hf/geoms/mol2/12ai12ai12ai-12ai.out
 42 45 0 0 0
SMALL
GASTEIGER

@<TRIPOS>ATOM
      1 C           0.5091    1.6399    0.6643 C.ar    1  LIG1        0.0930
      2 C           1.7554    1.7176    0.1389 C.ar    1  LIG1       -0.0203
      3 C           1.9908    3.1111   -0.1413 C.ar    1  LIG1       -0.0017
      4 C           0.8538    3.7482    0.2558 C.ar    1  LIG1        0.1726
      5 O          -0.0460    2.8641    0.7420 O.2     1  LIG1       -0.4596
      6 H          -0.0940    0.8206    1.0129 H       1  LIG1        0.1029
      7 H           2.4321    0.9002   -0.0462 H       1  LIG1        0.0652
      8 C           3.2172    3.7251   -0.7652 C.3     1  LIG1       -0.0360
      9 H           3.9674    3.9559   -0.0062 H       1  LIG1        0.0279
     10 H           2.9503    4.6450   -1.2863 H       1  LIG1        0.0279
     11 H           3.6554    3.0297   -1.4809 H       1  LIG1        0.0279
     12 C           0.4817    5.1557    0.2497 C.ar    1  LIG1        0.1712
     13 C           1.2156    6.3014    0.3218 C.ar    1  LIG1       -0.0091
     14 C           0.2861    7.3933    0.2371 C.ar    1  LIG1       -0.0009
     15 C          -0.9386    6.8015    0.1328 C.ar    1  LIG1        0.1736
     16 O          -0.8298    5.4557    0.1352 O.2     1  LIG1       -0.4484
     17 H           2.2832    6.3718    0.4493 H       1  LIG1        0.0659
     18 C           0.5960    8.8700    0.2797 C.3     1  LIG1       -0.0360
     19 H           0.2054    9.3139    1.1962 H       1  LIG1        0.0279
     20 H           0.1386    9.3795   -0.5683 H       1  LIG1        0.0279
     21 H           1.6744    9.0183    0.2467 H       1  LIG1        0.0279
     22 C          -2.2758    7.3501    0.0256 C.ar    1  LIG1        0.1713
     23 C          -3.5042    6.7821   -0.0979 C.ar    1  LIG1       -0.0091
     24 C          -4.4492    7.8660   -0.1604 C.ar    1  LIG1       -0.0009
     25 C          -3.6987    9.0006   -0.0697 C.ar    1  LIG1        0.1736
     26 O          -2.3823    8.6963    0.0445 O.2     1  LIG1       -0.4484
     27 H          -3.7147    5.7264   -0.1378 H       1  LIG1        0.0659
     28 C          -5.9450    7.7370   -0.2994 C.3     1  LIG1       -0.0360
     29 H          -6.3329    7.0913    0.4893 H       1  LIG1        0.0279
     30 H          -6.1907    7.2887   -1.2631 H       1  LIG1        0.0279
     31 H          -6.4193    8.7125   -0.2299 H       1  LIG1        0.0279
     32 C          -3.9944   10.4244   -0.0669 C.ar    1  LIG1        0.1702
     33 C          -3.1852   11.5056    0.0866 C.ar    1  LIG1       -0.0099
     34 C          -4.0410   12.6621   -0.0072 C.ar    1  LIG1       -0.0120
     35 C          -5.2873   12.1703   -0.2076 C.ar    1  LIG1        0.0956
     36 O          -5.2730   10.8168   -0.2479 O.2     1  LIG1       -0.4596
     37 H          -6.2451   12.6428   -0.3378 H       1  LIG1        0.1032
     38 H          -2.1201   11.4837    0.2467 H       1  LIG1        0.0659
     39 C          -3.6317   14.1091    0.0955 C.3     1  LIG1       -0.0367
     40 H          -4.4968   14.7577   -0.0392 H       1  LIG1        0.0278
     41 H          -2.8936   14.3484   -0.6708 H       1  LIG1        0.0278
     42 H          -3.1922   14.3109    1.0729 H       1  LIG1        0.0278
@<TRIPOS>BOND
     1    11     8    1
     2    10     8    1
     3    30    28    1
     4     8     3    1
     5     8     9    1
     6    41    39    1
     7    20    18    1
     8    37    35    1
     9    28    31    1
    10    28    24    1
    11    28    29    1
    12    36    35   ar
    13    36    32   ar
    14    35    34   ar
    15    24    23   ar
    16    24    25   ar
    17     3     2   ar
    18     3     4   ar
    19    27    23    1
    20    23    22   ar
    21    25    32    1
    22    25    26   ar
    23    32    33   ar
    24     7     2    1
    25    40    39    1
    26    34    33   ar
    27    34    39    1
    28    22    26   ar
    29    22    15    1
    30    33    38    1
    31    39    42    1
    32    15    16   ar
    33    15    14   ar
    34    16    12   ar
    35     2     1   ar
    36    14    18    1
    37    14    13   ar
    38    21    18    1
    39    12     4    1
    40    12    13   ar
    41     4     5   ar
    42    18    19    1
    43    13    17    1
    44     1     5   ar
    45     1     6    1
