@<TRIPOS>MOLECULE
mol_data/opt/m06hf/geoms/mol2/12ai12ai-12ai12ai.out
 42 45 0 0 0
SMALL
GASTEIGER

@<TRIPOS>ATOM
      1 C           0.2193    1.6378    0.0972 C.ar    1  LIG1        0.0930
      2 C           1.5736    1.6615    0.1012 C.ar    1  LIG1       -0.0203
      3 C           1.9612    3.0488    0.0811 C.ar    1  LIG1       -0.0017
      4 C           0.7853    3.7375    0.0652 C.ar    1  LIG1        0.1726
      5 O          -0.2703    2.8939    0.0752 O.2     1  LIG1       -0.4596
      6 H          -0.5044    0.8423    0.1086 H       1  LIG1        0.1029
      7 H           2.2343    0.8108    0.1181 H       1  LIG1        0.0652
      8 C           3.3618    3.6124    0.0726 C.3     1  LIG1       -0.0360
      9 H           3.4832    4.3455    0.8699 H       1  LIG1        0.0279
     10 H           3.5692    4.1048   -0.8783 H       1  LIG1        0.0279
     11 H           4.0807    2.8071    0.2171 H       1  LIG1        0.0279
     12 C           0.4815    5.1561    0.0403 C.ar    1  LIG1        0.1712
     13 C          -0.6865    5.8511    0.0462 C.ar    1  LIG1       -0.0091
     14 C          -0.3329    7.2453    0.0065 C.ar    1  LIG1       -0.0009
     15 C           1.0306    7.2653   -0.0182 C.ar    1  LIG1        0.1736
     16 O           1.5312    6.0050    0.0010 O.2     1  LIG1       -0.4484
     17 H          -1.6774    5.4297    0.0733 H       1  LIG1        0.0659
     18 C          -1.2955    8.4067    0.0011 C.3     1  LIG1       -0.0360
     19 H          -1.7942    8.4779    0.9690 H       1  LIG1        0.0279
     20 H          -2.0548    8.2464   -0.7652 H       1  LIG1        0.0279
     21 H          -0.7752    9.3401   -0.1984 H       1  LIG1        0.0279
     22 C           2.0196    8.3270   -0.0601 C.ar    1  LIG1        0.1713
     23 C           3.3788    8.3051   -0.1260 C.ar    1  LIG1       -0.0091
     24 C           3.8032    9.6779   -0.1555 C.ar    1  LIG1       -0.0009
     25 C           2.6556   10.4109   -0.0950 C.ar    1  LIG1        0.1736
     26 O           1.5738    9.5984   -0.0371 O.2     1  LIG1       -0.4484
     27 H           4.0002    7.4260   -0.1647 H       1  LIG1        0.0659
     28 C           5.2141   10.1968   -0.2576 C.3     1  LIG1       -0.0360
     29 H           5.6541   10.3263    0.7329 H       1  LIG1        0.0279
     30 H           5.2221   11.1574   -0.7736 H       1  LIG1        0.0279
     31 H           5.8273    9.4915   -0.8178 H       1  LIG1        0.0279
     32 C           2.4052   11.8447   -0.0811 C.ar    1  LIG1        0.1702
     33 C           3.1591   12.9094    0.3064 C.ar    1  LIG1       -0.0099
     34 C           2.3606   14.0821    0.0504 C.ar    1  LIG1       -0.0120
     35 C           1.1948   13.6135   -0.4587 C.ar    1  LIG1        0.0956
     36 O           1.2102   12.2659   -0.5461 O.2     1  LIG1       -0.4596
     37 H           0.2964   14.1044   -0.7900 H       1  LIG1        0.1032
     38 H           4.1419   12.8733    0.7469 H       1  LIG1        0.0659
     39 C           2.7378   15.5181    0.3102 C.3     1  LIG1       -0.0367
     40 H           1.9187   16.1796    0.0300 H       1  LIG1        0.0278
     41 H           3.6203   15.7910   -0.2694 H       1  LIG1        0.0278
     42 H           2.9600   15.6672    1.3672 H       1  LIG1        0.0278
@<TRIPOS>BOND
     1    10     8    1
     2    31    28    1
     3    37    35    1
     4    30    28    1
     5    20    18    1
     6    36    35   ar
     7    36    32   ar
     8    35    34   ar
     9    41    39    1
    10    28    24    1
    11    28    29    1
    12    21    18    1
    13    27    23    1
    14    24    23   ar
    15    24    25   ar
    16    23    22   ar
    17    25    32    1
    18    25    26   ar
    19    32    33   ar
    20    22    26   ar
    21    22    15    1
    22    15    16   ar
    23    15    14   ar
    24    16    12   ar
    25    18    14    1
    26    18    19    1
    27    14    13   ar
    28    40    39    1
    29    12    13   ar
    30    12     4    1
    31    13    17    1
    32    34    33   ar
    33    34    39    1
    34     4     5   ar
    35     4     3   ar
    36     8     3    1
    37     8    11    1
    38     8     9    1
    39     5     1   ar
    40     3     2   ar
    41     1     2   ar
    42     1     6    1
    43     2     7    1
    44    33    38    1
    45    39    42    1
