@<TRIPOS>MOLECULE
mol_data/opt/m06hf/geoms/mol2/12ai4af-6dh-6ah-.out
 46 49 0 0 0
SMALL
GASTEIGER

@<TRIPOS>ATOM
      1 C           0.7084    1.6280   -0.8966 C.ar    1  LIG1        0.0928
      2 C           1.7413    1.5961   -0.0224 C.ar    1  LIG1       -0.0204
      3 C           1.9370    2.9514    0.4260 C.ar    1  LIG1       -0.0047
      4 C           0.9972    3.6888   -0.2338 C.ar    1  LIG1        0.1378
      5 O           0.2493    2.8863   -1.0299 O.2     1  LIG1       -0.4627
      6 H           0.2094    0.8725   -1.4776 H       1  LIG1        0.1029
      7 H           2.2998    0.7288    0.2879 H       1  LIG1        0.0652
      8 C           2.9417    3.4087    1.4551 C.3     1  LIG1       -0.0361
      9 H           2.5478    4.2478    2.0287 H       1  LIG1        0.0279
     10 H           3.8794    3.7110    0.9842 H       1  LIG1        0.0279
     11 H           3.1539    2.5895    2.1417 H       1  LIG1        0.0279
     12 C           1.5795    6.0967    0.0949 C.ar    1  LIG1       -0.0503
     13 C           1.2046    7.4332    0.1183 C.ar    1  LIG1       -0.0498
     14 C           0.6336    5.1141   -0.2141 C.ar    1  LIG1        0.0210
     15 C          -0.1070    7.8199   -0.1672 C.ar    1  LIG1        0.0264
     16 H           1.9331    8.1943    0.3696 H       1  LIG1        0.0625
     17 C          -0.6746    5.4936   -0.5198 C.ar    1  LIG1       -0.0089
     18 C          -1.0452    6.8317   -0.4926 C.ar    1  LIG1        0.1253
     19 H          -1.4161    4.7534   -0.7891 H       1  LIG1        0.0661
     20 H           2.6060    5.8202    0.2908 H       1  LIG1        0.0625
     21 O          -2.3238    7.1857   -0.8466 O.3     1  LIG1       -0.5061
     22 H          -2.9024    7.1198   -0.0727 H       1  LIG1        0.2922
     23 C          -1.5181    9.7973    0.5827 C.ar    1  LIG1        0.1486
     24 C          -0.4637    9.2657   -0.1680 C.ar    1  LIG1        0.0232
     25 C           0.2733   10.1700   -0.9248 C.ar    1  LIG1       -0.0284
     26 C          -0.0406   11.5297   -0.9166 C.ar    1  LIG1        0.0516
     27 C          -1.1066   11.9524   -0.0832 C.ar    1  LIG1        0.0945
     28 N          -1.8216   11.0889    0.6206 N.ar    1  LIG1       -0.2338
     29 H           1.0769    9.8036   -1.5529 H       1  LIG1        0.0643
     30 N          -2.9955    8.1877    1.9978 N.1     1  LIG1       -0.1893
     31 C          -2.3485    8.9183    1.3922 C.1     1  LIG1        0.1197
     32 N           0.6717   12.4304   -1.6856 N.pl3   1  LIG1       -0.3563
     33 H           1.1915   12.0295   -2.4533 H       1  LIG1        0.1424
     34 H           0.1760   13.2779   -1.9298 H       1  LIG1        0.1424
     35 C          -2.8666   13.7135    0.0029 C.ar    1  LIG1        0.0369
     36 C          -1.5091   13.3858    0.0138 C.ar    1  LIG1        0.0220
     37 C          -0.5736   14.4103    0.1516 C.ar    1  LIG1       -0.0289
     38 C          -1.0205   15.7285    0.2611 C.ar    1  LIG1        0.0435
     39 C          -2.4060   15.9423    0.2221 C.ar    1  LIG1        0.0482
     40 N          -3.2960   14.9672    0.1002 N.ar    1  LIG1       -0.2608
     41 H           0.4863   14.1849    0.2006 H       1  LIG1        0.0643
     42 H          -2.7966   16.9512    0.3054 H       1  LIG1        0.0848
     43 H          -3.6113   12.9328   -0.0827 H       1  LIG1        0.0836
     44 N          -0.1405   16.7859    0.4613 N.pl3   1  LIG1       -0.3568
     45 H           0.8057   16.6370    0.1439 H       1  LIG1        0.1424
     46 H          -0.4960   17.7000    0.2219 H       1  LIG1        0.1424
@<TRIPOS>BOND
     1    33    32    1
     2    34    32    1
     3    32    26    1
     4    29    25    1
     5     6     1    1
     6     5     1   ar
     7     5     4   ar
     8    25    26   ar
     9    25    24   ar
    10    26    27   ar
    11     1     2   ar
    12    21    18    1
    13    21    22    1
    14    19    17    1
    15    17    18   ar
    16    17    14   ar
    17    18    15   ar
    18     4    14    1
    19     4     3   ar
    20    14    12   ar
    21    24    15    1
    22    24    23   ar
    23    15    13   ar
    24    27    36    1
    25    27    28   ar
    26    43    35    1
    27     2     7    1
    28     2     3   ar
    29    35    36   ar
    30    35    40   ar
    31    36    37   ar
    32    12    13   ar
    33    12    20    1
    34    40    39   ar
    35    13    16    1
    36    45    44    1
    37    37    41    1
    38    37    38   ar
    39    46    44    1
    40    39    38   ar
    41    39    42    1
    42    38    44    1
    43     3     8    1
    44    23    28   ar
    45    23    31    1
    46    10     8    1
    47    31    30    3
    48     8     9    1
    49     8    11    1
