@<TRIPOS>MOLECULE
mol_data/opt/m06hf/geoms/mol2/12ai12ai-12ai12ai-.out
 42 45 0 0 0
SMALL
GASTEIGER

@<TRIPOS>ATOM
      1 C           0.0983    1.7051   -0.0552 C.ar    1  LIG1        0.0930
      2 C           1.4525    1.6772   -0.0664 C.ar    1  LIG1       -0.0203
      3 C           1.8930    3.0484   -0.0455 C.ar    1  LIG1       -0.0017
      4 C           0.7443    3.7817   -0.0239 C.ar    1  LIG1        0.1726
      5 O          -0.3430    2.9793   -0.0298 O.2     1  LIG1       -0.4596
      6 H          -0.6560    0.9384   -0.0628 H       1  LIG1        0.1029
      7 H           2.0801    0.8018   -0.0863 H       1  LIG1        0.0652
      8 C           3.3145    3.5567   -0.0460 C.3     1  LIG1       -0.0360
      9 H           3.5052    4.1610    0.8415 H       1  LIG1        0.0279
     10 H           3.5009    4.1737   -0.9257 H       1  LIG1        0.0279
     11 H           4.0028    2.7126   -0.0539 H       1  LIG1        0.0279
     12 C           0.4986    5.2109    0.0045 C.ar    1  LIG1        0.1712
     13 C          -0.6400    5.9551    0.0353 C.ar    1  LIG1       -0.0091
     14 C          -0.2280    7.3312    0.0567 C.ar    1  LIG1       -0.0009
     15 C           1.1355    7.2938    0.0339 C.ar    1  LIG1        0.1736
     16 O           1.5827    6.0161    0.0032 O.2     1  LIG1       -0.4484
     17 H          -1.6475    5.5750    0.0455 H       1  LIG1        0.0659
     18 C          -1.1163    8.5508    0.0901 C.3     1  LIG1       -0.0360
     19 H          -2.1401    8.2496    0.3070 H       1  LIG1        0.0279
     20 H          -1.0956    9.0641   -0.8723 H       1  LIG1        0.0279
     21 H          -0.7781    9.2470    0.8570 H       1  LIG1        0.0279
     22 C           2.1483    8.3294    0.0389 C.ar    1  LIG1        0.1713
     23 C           3.5071    8.2896    0.0622 C.ar    1  LIG1       -0.0091
     24 C           3.9554    9.6566    0.0532 C.ar    1  LIG1       -0.0009
     25 C           2.8166   10.4062    0.0260 C.ar    1  LIG1        0.1736
     26 O           1.7188    9.6095    0.0161 O.2     1  LIG1       -0.4484
     27 H           4.1175    7.4021    0.0828 H       1  LIG1        0.0659
     28 C           5.3897   10.1212    0.0740 C.3     1  LIG1       -0.0360
     29 H           5.4425   11.2024   -0.0242 H       1  LIG1        0.0279
     30 H           5.9376    9.6587   -0.7479 H       1  LIG1        0.0279
     31 H           5.8611    9.8248    1.0121 H       1  LIG1        0.0279
     32 C           2.5367   11.8328    0.0013 C.ar    1  LIG1        0.1702
     33 C           1.3652   12.5186   -0.0636 C.ar    1  LIG1       -0.0099
     34 C           1.7190   13.9164   -0.0552 C.ar    1  LIG1       -0.0120
     35 C           3.0716   13.9435    0.0136 C.ar    1  LIG1        0.0956
     36 O           3.5793   12.6886    0.0490 O.2     1  LIG1       -0.4596
     37 H           3.7837   14.7496    0.0449 H       1  LIG1        0.1032
     38 H           0.3785   12.0890   -0.1137 H       1  LIG1        0.0659
     39 C           0.7799   15.0939   -0.1102 C.3     1  LIG1       -0.0367
     40 H           0.0987   15.0752    0.7412 H       1  LIG1        0.0278
     41 H           0.1890   15.0653   -1.0263 H       1  LIG1        0.0278
     42 H           1.3419   16.0271   -0.0867 H       1  LIG1        0.0278
@<TRIPOS>BOND
     1    41    39    1
     2    10     8    1
     3    20    18    1
     4    30    28    1
     5    38    33    1
     6    39    42    1
     7    39    34    1
     8    39    40    1
     9     7     2    1
    10     2     1   ar
    11     2     3   ar
    12    33    34   ar
    13    33    32   ar
    14     6     1    1
    15    34    35   ar
    16     1     5   ar
    17    11     8    1
    18     8     3    1
    19     8     9    1
    20     3     4   ar
    21     5     4   ar
    22    29    28    1
    23     4    12    1
    24    32    25    1
    25    32    36   ar
    26    16    12   ar
    27    16    15   ar
    28    12    13   ar
    29    35    37    1
    30    35    36   ar
    31    26    25   ar
    32    26    22   ar
    33    25    24   ar
    34    15    22    1
    35    15    14   ar
    36    13    17    1
    37    13    14   ar
    38    22    23   ar
    39    24    23   ar
    40    24    28    1
    41    14    18    1
    42    23    27    1
    43    28    31    1
    44    18    19    1
    45    18    21    1
