@<TRIPOS>MOLECULE
mol_data/opt/m06hf/geoms/mol2/12ai12ai12ai12ai-.out
 42 45 0 0 0
SMALL
GASTEIGER

@<TRIPOS>ATOM
      1 C           0.7592    1.5393   -0.1059 C.ar    1  LIG1        0.0930
      2 C           2.0437    1.7490    0.2705 C.ar    1  LIG1       -0.0203
      3 C           2.2262    3.1773    0.3081 C.ar    1  LIG1       -0.0017
      4 C           1.0223    3.6968   -0.0622 C.ar    1  LIG1        0.1726
      5 O           0.1316    2.7119   -0.3140 O.2     1  LIG1       -0.4596
      6 H           0.1722    0.6516   -0.2604 H       1  LIG1        0.1029
      7 H           2.7789    0.9987    0.5080 H       1  LIG1        0.0652
      8 C           3.4707    3.9314    0.6990 C.3     1  LIG1       -0.0360
      9 H           3.2050    4.9134    1.0919 H       1  LIG1        0.0279
     10 H           4.1322    4.0645   -0.1592 H       1  LIG1        0.0279
     11 H           4.0114    3.3796    1.4676 H       1  LIG1        0.0279
     12 C           0.5777    5.0743   -0.2289 C.ar    1  LIG1        0.1712
     13 C           1.2393    6.2081   -0.5912 C.ar    1  LIG1       -0.0091
     14 C           0.2740    7.2707   -0.5600 C.ar    1  LIG1       -0.0009
     15 C          -0.8940    6.6770   -0.1795 C.ar    1  LIG1        0.1736
     16 O          -0.7170    5.3531    0.0243 O.2     1  LIG1       -0.4484
     17 H           2.2731    6.2787   -0.8861 H       1  LIG1        0.0659
     18 C           0.4968    8.7184   -0.9125 C.3     1  LIG1       -0.0360
     19 H           0.7766    9.2964   -0.0293 H       1  LIG1        0.0279
     20 H          -0.4128    9.1445   -1.3370 H       1  LIG1        0.0279
     21 H           1.2987    8.8005   -1.6457 H       1  LIG1        0.0279
     22 C          -2.2241    7.2234    0.0402 C.ar    1  LIG1        0.1713
     23 C          -2.6602    8.4721    0.3611 C.ar    1  LIG1       -0.0091
     24 C          -4.0956    8.4035    0.4224 C.ar    1  LIG1       -0.0009
     25 C          -4.3984    7.1043    0.1386 C.ar    1  LIG1        0.1736
     26 O          -3.2750    6.3883   -0.0973 O.2     1  LIG1       -0.4484
     27 H          -2.0463    9.3336    0.5655 H       1  LIG1        0.0659
     28 C          -5.0293    9.5421    0.7478 C.3     1  LIG1       -0.0360
     29 H          -6.0496    9.1811    0.8490 H       1  LIG1        0.0279
     30 H          -4.9947   10.2911   -0.0449 H       1  LIG1        0.0279
     31 H          -4.7217   10.0145    1.6816 H       1  LIG1        0.0279
     32 C          -5.6405    6.3524    0.0486 C.ar    1  LIG1        0.1702
     33 C          -5.8811    5.0390   -0.2014 C.ar    1  LIG1       -0.0099
     34 C          -7.3138    4.8805   -0.1608 C.ar    1  LIG1       -0.0120
     35 C          -7.8038    6.1142    0.1093 C.ar    1  LIG1        0.0956
     36 O          -6.8013    7.0153    0.2385 O.2     1  LIG1       -0.4596
     37 H          -8.8037    6.4916    0.2366 H       1  LIG1        0.1032
     38 H          -5.1366    4.2835   -0.3882 H       1  LIG1        0.0659
     39 C          -8.0950    3.6092   -0.3730 C.3     1  LIG1       -0.0367
     40 H          -7.8020    2.8584    0.3615 H       1  LIG1        0.0278
     41 H          -7.9045    3.2094   -1.3694 H       1  LIG1        0.0278
     42 H          -9.1633    3.7987   -0.2708 H       1  LIG1        0.0278
@<TRIPOS>BOND
     1    21    18    1
     2    41    39    1
     3    20    18    1
     4    18    14    1
     5    18    19    1
     6    17    13    1
     7    13    14   ar
     8    13    12   ar
     9    14    15   ar
    10    38    33    1
    11    39    42    1
    12    39    34    1
    13    39    40    1
    14     5     1   ar
    15     5     4   ar
    16     6     1    1
    17    12     4    1
    18    12    16   ar
    19    33    34   ar
    20    33    32   ar
    21    15    16   ar
    22    15    22    1
    23    34    35   ar
    24    10     8    1
    25     1     2   ar
    26    26    22   ar
    27    26    25   ar
    28     4     3   ar
    29    30    28    1
    30    22    23   ar
    31    32    25    1
    32    32    36   ar
    33    35    37    1
    34    35    36   ar
    35    25    24   ar
    36     2     3   ar
    37     2     7    1
    38     3     8    1
    39    23    24   ar
    40    23    27    1
    41    24    28    1
    42     8     9    1
    43     8    11    1
    44    28    29    1
    45    28    31    1
