@<TRIPOS>MOLECULE
mol_data/opt/m06hf/geoms/mol2/12ai12ai12ai-12ai-.out
 42 45 0 0 0
SMALL
GASTEIGER

@<TRIPOS>ATOM
      1 C           0.3630    1.5975   -0.4114 C.ar    1  LIG1        0.0930
      2 C           1.6265    1.6384    0.0763 C.ar    1  LIG1       -0.0203
      3 C           1.9425    3.0309    0.2661 C.ar    1  LIG1       -0.0017
      4 C           0.8296    3.7043   -0.1391 C.ar    1  LIG1        0.1726
      5 O          -0.1291    2.8433   -0.5481 O.2     1  LIG1       -0.4596
      6 H          -0.2925    0.7930   -0.6942 H       1  LIG1        0.1029
      7 H           2.2641    0.7974    0.2927 H       1  LIG1        0.0652
      8 C           3.2172    3.6135    0.8191 C.3     1  LIG1       -0.0360
      9 H           3.0094    4.5607    1.3179 H       1  LIG1        0.0279
     10 H           3.9450    3.7876    0.0243 H       1  LIG1        0.0279
     11 H           3.6553    2.9247    1.5412 H       1  LIG1        0.0279
     12 C           0.5318    5.1277   -0.2084 C.ar    1  LIG1        0.1712
     13 C           1.3228    6.2272   -0.3443 C.ar    1  LIG1       -0.0091
     14 C           0.4487    7.3698   -0.3236 C.ar    1  LIG1       -0.0009
     15 C          -0.8043    6.8493   -0.1855 C.ar    1  LIG1        0.1736
     16 O          -0.7619    5.4991   -0.1091 O.2     1  LIG1       -0.4484
     17 H           2.3919    6.2360   -0.4787 H       1  LIG1        0.0659
     18 C           0.8637    8.8150   -0.4455 C.3     1  LIG1       -0.0360
     19 H          -0.0048    9.4556   -0.5771 H       1  LIG1        0.0279
     20 H           1.5309    8.9322   -1.3003 H       1  LIG1        0.0279
     21 H           1.3986    9.1242    0.4540 H       1  LIG1        0.0279
     22 C          -2.1320    7.4345   -0.1207 C.ar    1  LIG1        0.1713
     23 C          -3.3703    6.8724   -0.0821 C.ar    1  LIG1       -0.0091
     24 C          -4.3065    7.9620   -0.0504 C.ar    1  LIG1       -0.0009
     25 C          -3.5438    9.0921   -0.0618 C.ar    1  LIG1        0.1736
     26 O          -2.2272    8.7788   -0.1030 O.2     1  LIG1       -0.4484
     27 H          -3.5889    5.8178   -0.0930 H       1  LIG1        0.0659
     28 C          -5.8107    7.8739   -0.0332 C.3     1  LIG1       -0.0360
     29 H          -6.1320    6.9584   -0.5286 H       1  LIG1        0.0279
     30 H          -6.2411    8.7278   -0.5574 H       1  LIG1        0.0279
     31 H          -6.1886    7.8629    0.9909 H       1  LIG1        0.0279
     32 C          -3.8866   10.5061   -0.0319 C.ar    1  LIG1        0.1702
     33 C          -4.9878   11.1779    0.4020 C.ar    1  LIG1       -0.0099
     34 C          -4.7385   12.5730    0.1375 C.ar    1  LIG1       -0.0120
     35 C          -3.5048   12.6132   -0.4225 C.ar    1  LIG1        0.0956
     36 O          -2.9814   11.3727   -0.5330 O.2     1  LIG1       -0.4596
     37 H          -2.8932   13.4235   -0.7791 H       1  LIG1        0.1032
     38 H          -5.8552   10.7510    0.8774 H       1  LIG1        0.0659
     39 C          -5.6525   13.7345    0.4332 C.3     1  LIG1       -0.0367
     40 H          -5.8667   13.7880    1.5011 H       1  LIG1        0.0278
     41 H          -6.5957   13.6211   -0.1023 H       1  LIG1        0.0278
     42 H          -5.1867   14.6697    0.1241 H       1  LIG1        0.0278
@<TRIPOS>BOND
     1    20    18    1
     2    37    35    1
     3     6     1    1
     4    19    18    1
     5    30    28    1
     6     5     1   ar
     7     5     4   ar
     8    36    35   ar
     9    36    32   ar
    10    29    28    1
    11    17    13    1
    12    18    14    1
    13    18    21    1
    14    35    34   ar
    15     1     2   ar
    16    13    14   ar
    17    13    12   ar
    18    14    15   ar
    19    12     4    1
    20    12    16   ar
    21    15    22    1
    22    15    16   ar
    23     4     3   ar
    24    22    26   ar
    25    22    23   ar
    26    26    25   ar
    27    41    39    1
    28    27    23    1
    29    23    24   ar
    30    25    24   ar
    31    25    32    1
    32    24    28    1
    33    28    31    1
    34    32    33   ar
    35    10     8    1
    36     2     3   ar
    37     2     7    1
    38    42    39    1
    39    34    33   ar
    40    34    39    1
    41     3     8    1
    42    33    38    1
    43    39    40    1
    44     8     9    1
    45     8    11    1
