@<TRIPOS>MOLECULE
mol_data/opt/m06hf/geoms/mol2/12ai12ai12ai.out
 32 34 0 0 0
SMALL
GASTEIGER

@<TRIPOS>ATOM
      1 C           0.4821    1.6178   -0.6933 C.ar    1  LIG1        0.0930
      2 C           1.7405    1.6876   -0.1964 C.ar    1  LIG1       -0.0203
      3 C           1.9812    3.0763    0.1014 C.ar    1  LIG1       -0.0017
      4 C           0.8344    3.7179   -0.2585 C.ar    1  LIG1        0.1726
      5 O          -0.0758    2.8415   -0.7378 O.2     1  LIG1       -0.4596
      6 H          -0.1284    0.8028   -1.0391 H       1  LIG1        0.1029
      7 H           2.4197    0.8664   -0.0398 H       1  LIG1        0.0652
      8 C           3.2208    3.6849    0.7039 C.3     1  LIG1       -0.0360
      9 H           2.9622    4.5918    1.2515 H       1  LIG1        0.0279
     10 H           3.9473    3.9379   -0.0707 H       1  LIG1        0.0279
     11 H           3.6839    2.9779    1.3917 H       1  LIG1        0.0279
     12 C           0.4639    5.1266   -0.2269 C.ar    1  LIG1        0.1712
     13 C           1.2010    6.2673   -0.3274 C.ar    1  LIG1       -0.0091
     14 C           0.2782    7.3604   -0.1878 C.ar    1  LIG1       -0.0009
     15 C          -0.9439    6.7757   -0.0352 C.ar    1  LIG1        0.1736
     16 O          -0.8380    5.4280   -0.0514 O.2     1  LIG1       -0.4484
     17 H           2.2631    6.3309   -0.4974 H       1  LIG1        0.0659
     18 C           0.5962    8.8333   -0.2010 C.3     1  LIG1       -0.0360
     19 H          -0.1670    9.3839    0.3492 H       1  LIG1        0.0279
     20 H           0.6355    9.2138   -1.2233 H       1  LIG1        0.0279
     21 H           1.5643    9.0074    0.2681 H       1  LIG1        0.0279
     22 C          -2.2753    7.3483    0.1170 C.ar    1  LIG1        0.1702
     23 C          -2.8302    8.5014   -0.3451 C.ar    1  LIG1       -0.0099
     24 C          -4.1771    8.5338    0.1670 C.ar    1  LIG1       -0.0120
     25 C          -4.3105    7.3894    0.8820 C.ar    1  LIG1        0.0956
     26 O          -3.1699    6.6688    0.8638 O.2     1  LIG1       -0.4596
     27 H          -5.1334    6.9698    1.4343 H       1  LIG1        0.1032
     28 H          -2.3592    9.2235   -0.9916 H       1  LIG1        0.0659
     29 C          -5.2166    9.6016   -0.0597 C.3     1  LIG1       -0.0367
     30 H          -6.1465    9.3342    0.4412 H       1  LIG1        0.0278
     31 H          -5.4169    9.7173   -1.1255 H       1  LIG1        0.0278
     32 H          -4.8719   10.5588    0.3327 H       1  LIG1        0.0278
@<TRIPOS>BOND
     1    20    18    1
     2    31    29    1
     3     6     1    1
     4    28    23    1
     5     5     1   ar
     6     5     4   ar
     7     1     2   ar
     8    17    13    1
     9    23    22   ar
    10    23    24   ar
    11    13    12   ar
    12    13    14   ar
    13     4    12    1
    14     4     3   ar
    15    12    16   ar
    16    18    14    1
    17    18    21    1
    18    18    19    1
    19     2     7    1
    20     2     3   ar
    21    14    15   ar
    22    10     8    1
    23    29    24    1
    24    29    32    1
    25    29    30    1
    26    16    15   ar
    27    15    22    1
    28     3     8    1
    29    22    26   ar
    30    24    25   ar
    31     8     9    1
    32     8    11    1
    33    26    25   ar
    34    25    27    1
