@<TRIPOS>MOLECULE
mol_data/opt/m06hf/geoms/mol2/12ai12ai-12ai-12ai.out
 42 45 0 0 0
SMALL
GASTEIGER

@<TRIPOS>ATOM
      1 C          -0.1098    1.7151    0.0480 C.ar    1  LIG1        0.0930
      2 C           1.2181    1.6087    0.2834 C.ar    1  LIG1       -0.0203
      3 C           1.7435    2.9528    0.2960 C.ar    1  LIG1       -0.0017
      4 C           0.6640    3.7506    0.0642 C.ar    1  LIG1        0.1726
      5 O          -0.4596    3.0104   -0.0860 O.2     1  LIG1       -0.4596
      6 H          -0.9030    0.9949   -0.0489 H       1  LIG1        0.1029
      7 H           1.7765    0.6996    0.4324 H       1  LIG1        0.0652
      8 C           3.1833    3.3443    0.5183 C.3     1  LIG1       -0.0360
      9 H           3.3043    4.4230    0.4561 H       1  LIG1        0.0279
     10 H           3.8135    2.8694   -0.2352 H       1  LIG1        0.0279
     11 H           3.5107    3.0048    1.5022 H       1  LIG1        0.0279
     12 C           0.4827    5.1886   -0.0560 C.ar    1  LIG1        0.1712
     13 C          -0.6112    5.9482   -0.3323 C.ar    1  LIG1       -0.0091
     14 C          -0.1641    7.3137   -0.3382 C.ar    1  LIG1       -0.0009
     15 C           1.1681    7.2567   -0.0529 C.ar    1  LIG1        0.1736
     16 O           1.5645    5.9733    0.1176 O.2     1  LIG1       -0.4484
     17 H          -1.6064    5.5838   -0.5231 H       1  LIG1        0.0659
     18 C          -0.9877    8.5438   -0.6190 C.3     1  LIG1       -0.0360
     19 H          -1.8220    8.2878   -1.2710 H       1  LIG1        0.0279
     20 H          -0.3758    9.3007   -1.1110 H       1  LIG1        0.0279
     21 H          -1.3883    8.9622    0.3063 H       1  LIG1        0.0279
     22 C           2.1825    8.2866    0.0950 C.ar    1  LIG1        0.1713
     23 C           2.1184    9.6180    0.3714 C.ar    1  LIG1       -0.0091
     24 C           3.4723   10.1047    0.3667 C.ar    1  LIG1       -0.0009
     25 C           4.2402    9.0113    0.0947 C.ar    1  LIG1        0.1736
     26 O           3.4686    7.9120   -0.0737 O.2     1  LIG1       -0.4484
     27 H           1.2298   10.1885    0.5859 H       1  LIG1        0.0659
     28 C           3.9090   11.5249    0.6242 C.3     1  LIG1       -0.0360
     29 H           3.4963   11.8708    1.5727 H       1  LIG1        0.0279
     30 H           3.5417   12.1770   -0.1697 H       1  LIG1        0.0279
     31 H           4.9933   11.5890    0.6623 H       1  LIG1        0.0279
     32 C           5.6708    8.7846   -0.0418 C.ar    1  LIG1        0.1702
     33 C           6.3799    7.6566   -0.3064 C.ar    1  LIG1       -0.0099
     34 C           7.7673    8.0493   -0.3164 C.ar    1  LIG1       -0.0120
     35 C           7.7655    9.3789   -0.0574 C.ar    1  LIG1        0.0956
     36 O           6.5022    9.8371    0.1101 O.2     1  LIG1       -0.4596
     37 H           8.5536   10.1058    0.0364 H       1  LIG1        0.1032
     38 H           5.9701    6.6743   -0.4728 H       1  LIG1        0.0659
     39 C           8.9617    7.1636   -0.5628 C.3     1  LIG1       -0.0367
     40 H           9.8828    7.7419   -0.4969 H       1  LIG1        0.0278
     41 H           8.9017    6.7139   -1.5543 H       1  LIG1        0.0278
     42 H           8.9987    6.3635    0.1772 H       1  LIG1        0.0278
@<TRIPOS>BOND
     1    41    39    1
     2    19    18    1
     3    20    18    1
     4    18    14    1
     5    18    21    1
     6    39    40    1
     7    39    34    1
     8    39    42    1
     9    17    13    1
    10    38    33    1
    11    14    13   ar
    12    14    15   ar
    13    13    12   ar
    14    34    33   ar
    15    34    35   ar
    16    33    32   ar
    17    10     8    1
    18    30    28    1
    19     5     1   ar
    20     5     4   ar
    21    26    25   ar
    22    26    22   ar
    23    35    37    1
    24    35    36   ar
    25    12     4    1
    26    12    16   ar
    27    15    22    1
    28    15    16   ar
    29     6     1    1
    30    32    25    1
    31    32    36   ar
    32     1     2   ar
    33     4     3   ar
    34    25    24   ar
    35    22    23   ar
    36     2     3   ar
    37     2     7    1
    38     3     8    1
    39    24    23   ar
    40    24    28    1
    41    23    27    1
    42     9     8    1
    43     8    11    1
    44    28    31    1
    45    28    29    1
