@<TRIPOS>MOLECULE
mol_data/opt/m06hf/geoms/mol2/12ai12ai-12ai-12ai-.out
 42 45 0 0 0
SMALL
GASTEIGER

@<TRIPOS>ATOM
      1 C          -0.2702    1.6993   -0.1518 C.ar    1  LIG1        0.0930
      2 C           1.0649    1.5563   -0.3162 C.ar    1  LIG1       -0.0203
      3 C           1.6295    2.8841   -0.2834 C.ar    1  LIG1       -0.0017
      4 C           0.5619    3.7108   -0.1019 C.ar    1  LIG1        0.1726
      5 O          -0.5895    3.0028   -0.0216 O.2     1  LIG1       -0.4596
      6 H          -1.0880    1.0017   -0.1065 H       1  LIG1        0.1029
      7 H           1.6043    0.6327   -0.4446 H       1  LIG1        0.0652
      8 C           3.0900    3.2353   -0.4214 C.3     1  LIG1       -0.0360
      9 H           3.2520    4.2976   -0.2558 H       1  LIG1        0.0279
     10 H           3.4410    2.9739   -1.4209 H       1  LIG1        0.0279
     11 H           3.6720    2.6671    0.3055 H       1  LIG1        0.0279
     12 C           0.4170    5.1522    0.0244 C.ar    1  LIG1        0.1712
     13 C          -0.6636    5.9403    0.2732 C.ar    1  LIG1       -0.0091
     14 C          -0.1790    7.2925    0.3013 C.ar    1  LIG1       -0.0009
     15 C           1.1589    7.1998    0.0553 C.ar    1  LIG1        0.1736
     16 O           1.5242    5.9073   -0.1128 O.2     1  LIG1       -0.4484
     17 H          -1.6737    5.6025    0.4327 H       1  LIG1        0.0659
     18 C          -0.9766    8.5432    0.5661 C.3     1  LIG1       -0.0360
     19 H          -1.8354    8.3066    1.1931 H       1  LIG1        0.0279
     20 H          -1.3399    8.9769   -0.3674 H       1  LIG1        0.0279
     21 H          -0.3586    9.2807    1.0794 H       1  LIG1        0.0279
     22 C           2.2039    8.2041   -0.0566 C.ar    1  LIG1        0.1713
     23 C           2.1752    9.5380   -0.3345 C.ar    1  LIG1       -0.0091
     24 C           3.5348    9.9959   -0.2639 C.ar    1  LIG1       -0.0009
     25 C           4.2702    8.8865    0.0318 C.ar    1  LIG1        0.1736
     26 O           3.4726    7.8028    0.1617 O.2     1  LIG1       -0.4484
     27 H           1.3054   10.1260   -0.5762 H       1  LIG1        0.0659
     28 C           4.0374   11.4018   -0.4669 C.3     1  LIG1       -0.0360
     29 H           3.2846   12.1153   -0.1333 H       1  LIG1        0.0279
     30 H           4.2496   11.5914   -1.5209 H       1  LIG1        0.0279
     31 H           4.9507   11.5583    0.1082 H       1  LIG1        0.0279
     32 C           5.7029    8.6929    0.2069 C.ar    1  LIG1        0.1702
     33 C           6.7837    9.3475   -0.2974 C.ar    1  LIG1       -0.0099
     34 C           7.9436    8.7043    0.2669 C.ar    1  LIG1       -0.0120
     35 C           7.4518    7.7142    1.0520 C.ar    1  LIG1        0.0956
     36 O           6.1025    7.7000    1.0280 O.2     1  LIG1       -0.4596
     37 H           7.9274    6.9663    1.6627 H       1  LIG1        0.1032
     38 H           6.7678   10.1606   -1.0042 H       1  LIG1        0.0659
     39 C           9.3898    9.0514    0.0225 C.3     1  LIG1       -0.0367
     40 H           9.6015   10.0645    0.3661 H       1  LIG1        0.0278
     41 H           9.6206    8.9925   -1.0417 H       1  LIG1        0.0278
     42 H          10.0400    8.3600    0.5575 H       1  LIG1        0.0278
@<TRIPOS>BOND
     1    30    28    1
     2    10     8    1
     3    41    39    1
     4    38    33    1
     5    27    23    1
     6    28    24    1
     7    28    29    1
     8    28    31    1
     9     7     2    1
    10     8     3    1
    11     8     9    1
    12     8    11    1
    13    20    18    1
    14    23    24   ar
    15    23    22   ar
    16     2     3   ar
    17     2     1   ar
    18    33    32   ar
    19    33    34   ar
    20     3     4   ar
    21    24    25   ar
    22     1     6    1
    23     1     5   ar
    24    16    12   ar
    25    16    15   ar
    26     4     5   ar
    27     4    12    1
    28    22    15    1
    29    22    26   ar
    30    39    34    1
    31    39    40    1
    32    39    42    1
    33    12    13   ar
    34    25    26   ar
    35    25    32    1
    36    15    14   ar
    37    32    36   ar
    38    34    35   ar
    39    13    14   ar
    40    13    17    1
    41    14    18    1
    42    18    21    1
    43    18    19    1
    44    36    35   ar
    45    35    37    1
