@<TRIPOS>MOLECULE
mol_data/opt/m06hf/geoms/mol2/12ai12ai-12ai.out
 32 34 0 0 0
SMALL
GASTEIGER

@<TRIPOS>ATOM
      1 C           0.1602    1.7563   -0.2404 C.ar    1  LIG1        0.0930
      2 C           1.5039    1.7334   -0.0762 C.ar    1  LIG1       -0.0203
      3 C           1.9271    3.1070    0.0391 C.ar    1  LIG1       -0.0017
      4 C           0.7812    3.8356   -0.0733 C.ar    1  LIG1        0.1726
      5 O          -0.2903    3.0273   -0.2413 O.2     1  LIG1       -0.4596
      6 H          -0.5820    0.9876   -0.3637 H       1  LIG1        0.1029
      7 H           2.1356    0.8615   -0.0328 H       1  LIG1        0.0652
      8 C           3.3372    3.6064    0.2344 C.3     1  LIG1       -0.0360
      9 H           3.3346    4.5581    0.7619 H       1  LIG1        0.0279
     10 H           3.8287    3.7450   -0.7303 H       1  LIG1        0.0279
     11 H           3.9061    2.8776    0.8115 H       1  LIG1        0.0279
     12 C           0.5036    5.2613   -0.0395 C.ar    1  LIG1        0.1712
     13 C          -0.6567    5.9673   -0.0152 C.ar    1  LIG1       -0.0091
     14 C          -0.2885    7.3585    0.0143 C.ar    1  LIG1       -0.0009
     15 C           1.0742    7.3664    0.0081 C.ar    1  LIG1        0.1736
     16 O           1.5609    6.1008   -0.0276 O.2     1  LIG1       -0.4484
     17 H          -1.6513    5.5539   -0.0181 H       1  LIG1        0.0659
     18 C          -1.2357    8.5314    0.0446 C.3     1  LIG1       -0.0360
     19 H          -1.7673    8.5563    0.9970 H       1  LIG1        0.0279
     20 H          -1.9688    8.4306   -0.7565 H       1  LIG1        0.0279
     21 H          -0.6917    9.4639   -0.0815 H       1  LIG1        0.0279
     22 C           2.0864    8.4109    0.0188 C.ar    1  LIG1        0.1702
     23 C           3.4376    8.3539   -0.1173 C.ar    1  LIG1       -0.0099
     24 C           3.9076    9.7134   -0.0175 C.ar    1  LIG1       -0.0120
     25 C           2.7951   10.4641    0.1680 C.ar    1  LIG1        0.0956
     26 O           1.6859    9.6878    0.1946 O.2     1  LIG1       -0.4596
     27 H           2.6417   11.5215    0.2954 H       1  LIG1        0.1032
     28 H           4.0231    7.4634   -0.2743 H       1  LIG1        0.0659
     29 C           5.3336   10.1937   -0.1050 C.3     1  LIG1       -0.0367
     30 H           5.3776   11.2742    0.0285 H       1  LIG1        0.0278
     31 H           5.7590    9.9438   -1.0774 H       1  LIG1        0.0278
     32 H           5.9402    9.7215    0.6686 H       1  LIG1        0.0278
@<TRIPOS>BOND
     1    31    29    1
     2    20    18    1
     3    10     8    1
     4     6     1    1
     5    28    23    1
     6     5     1   ar
     7     5     4   ar
     8     1     2   ar
     9    23    24   ar
    10    23    22   ar
    11    29    24    1
    12    29    30    1
    13    29    32    1
    14    21    18    1
    15     2     7    1
    16     2     3   ar
    17     4    12    1
    18     4     3   ar
    19    12    16   ar
    20    12    13   ar
    21    16    15   ar
    22    17    13    1
    23    24    25   ar
    24    13    14   ar
    25    15    14   ar
    26    15    22    1
    27    14    18    1
    28    22    26   ar
    29     3     8    1
    30    18    19    1
    31    25    26   ar
    32    25    27    1
    33     8     9    1
    34     8    11    1
