@<TRIPOS>MOLECULE
mol_data/opt/m06hf/geoms/mol2/12al12al-12al12al-.out
 46 49 0 0 0
SMALL
GASTEIGER

@<TRIPOS>ATOM
      1 C           0.4023    1.6666   -0.0001 C.ar    1  LIG1        0.0964
      2 C           1.7550    1.7723    0.0000 C.ar    1  LIG1        0.0187
      3 C           2.0244    3.1880   -0.0001 C.ar    1  LIG1        0.1687
      4 C           0.8083    3.8085   -0.0001 C.ar    1  LIG1        0.2111
      5 O          -0.1750    2.8776   -0.0000 O.2     1  LIG1       -0.4560
      6 H          -0.2585    0.8182   -0.0002 H       1  LIG1        0.1031
      7 H           2.4606    0.9601    0.0001 H       1  LIG1        0.0686
      8 O           3.2111    3.8312   -0.0001 O.3     1  LIG1       -0.4912
      9 C           4.3604    3.0027   -0.0001 C.3     1  LIG1        0.0790
     10 H           5.2146    3.6745   -0.0001 H       1  LIG1        0.0660
     11 H           4.3830    2.3767    0.8955 H       1  LIG1        0.0660
     12 H           4.3830    2.3767   -0.8956 H       1  LIG1        0.0660
     13 C           0.4188    5.2022   -0.0001 C.ar    1  LIG1        0.1780
     14 C          -0.7906    5.8177   -0.0000 C.ar    1  LIG1        0.0300
     15 C          -0.5092    7.2261   -0.0001 C.ar    1  LIG1        0.1694
     16 C           0.8600    7.3571   -0.0001 C.ar    1  LIG1        0.2121
     17 O           1.4089    6.1056   -0.0002 O.2     1  LIG1       -0.4447
     18 H          -1.7674    5.3679    0.0000 H       1  LIG1        0.0694
     19 O          -1.5280    8.1029   -0.0000 O.3     1  LIG1       -0.4912
     20 C          -1.2315    9.4907   -0.0003 C.3     1  LIG1        0.0790
     21 H          -2.1938    9.9956   -0.0003 H       1  LIG1        0.0660
     22 H          -0.6621    9.7568    0.8914 H       1  LIG1        0.0660
     23 H          -0.6622    9.7565   -0.8920 H       1  LIG1        0.0660
     24 C           1.9002    8.3768   -0.0002 C.ar    1  LIG1        0.1780
     25 C           3.2498    8.1803   -0.0001 C.ar    1  LIG1        0.0300
     26 C           3.8257    9.4975   -0.0001 C.ar    1  LIG1        0.1694
     27 C           2.7848   10.3796   -0.0002 C.ar    1  LIG1        0.2121
     28 O           1.6121    9.6886   -0.0002 O.2     1  LIG1       -0.4447
     29 H           3.7346    7.2190   -0.0001 H       1  LIG1        0.0694
     30 O           5.1269    9.8501   -0.0001 O.3     1  LIG1       -0.4912
     31 C           6.0492    8.7751   -0.0001 C.3     1  LIG1        0.0790
     32 H           7.0373    9.2265   -0.0001 H       1  LIG1        0.0660
     33 H           5.9211    8.1611    0.8948 H       1  LIG1        0.0660
     34 H           5.9211    8.1611   -0.8949 H       1  LIG1        0.0660
     35 C           2.6915   11.8238   -0.0002 C.ar    1  LIG1        0.1770
     36 C           1.6133   12.6530   -0.0003 C.ar    1  LIG1        0.0292
     37 C           2.1648   13.9790   -0.0003 C.ar    1  LIG1        0.1583
     38 C           3.5190   13.8459   -0.0003 C.ar    1  LIG1        0.1342
     39 O           3.8376   12.5245   -0.0002 O.2     1  LIG1       -0.4560
     40 H           4.3391   14.5389   -0.0002 H       1  LIG1        0.1068
     41 H           0.5722   12.3841   -0.0003 H       1  LIG1        0.0693
     42 O           1.4022   15.0947   -0.0003 O.3     1  LIG1       -0.4919
     43 C           2.1329   16.3060   -0.0002 C.3     1  LIG1        0.0789
     44 H           1.4021   17.1100   -0.0002 H       1  LIG1        0.0660
     45 H           2.7590   16.3695    0.8946 H       1  LIG1        0.0660
     46 H           2.7591   16.3695   -0.8950 H       1  LIG1        0.0660
@<TRIPOS>BOND
     1    12     9    1
     2    46    43    1
     3    34    31    1
     4    23    20    1
     5    21    20    1
     6    41    36    1
     7    20    19    1
     8    20    22    1
     9    42    37    1
    10    42    43    1
    11    36    37   ar
    12    36    35   ar
    13    37    38   ar
    14    38    40    1
    15    38    39   ar
    16    39    35   ar
    17    35    27    1
    18    43    44    1
    19    43    45    1
    20    28    27   ar
    21    28    24   ar
    22    27    26   ar
    23     6     1    1
    24    24    16    1
    25    24    25   ar
    26    17    16   ar
    27    17    13   ar
    28     1     5   ar
    29     1     2   ar
    30    16    15   ar
    31    26    25   ar
    32    26    30    1
    33    25    29    1
    34    30    31    1
    35    10     9    1
    36     8     3    1
    37     8     9    1
    38     3     4   ar
    39     3     2   ar
    40    31    32    1
    41    31    33    1
    42    13     4    1
    43    13    14   ar
    44     4     5   ar
    45    15    19    1
    46    15    14   ar
    47     9    11    1
    48    14    18    1
    49     2     7    1
