@<TRIPOS>MOLECULE
mol_data/opt/m06hf/geoms/mol2/12al6lh-6ef13ea-.out
 50 53 0 0 0
SMALL
GASTEIGER

@<TRIPOS>ATOM
      1 C           0.2340    1.5244    0.5093 C.ar    1  LIG1        0.0962
      2 C           1.5411    1.5437    0.1419 C.ar    1  LIG1        0.0186
      3 C           1.8364    2.9300   -0.0878 C.ar    1  LIG1        0.1657
      4 C           0.6877    3.6344    0.1608 C.ar    1  LIG1        0.1813
      5 O          -0.2794    2.7574    0.5218 O.2     1  LIG1       -0.4590
      6 H          -0.4320    0.7252    0.7830 H       1  LIG1        0.1031
      7 H           2.1970    0.6956    0.0509 H       1  LIG1        0.0686
      8 O           3.0098    3.4871   -0.4789 O.3     1  LIG1       -0.4913
      9 C           4.1043    2.5947   -0.5994 C.3     1  LIG1        0.0790
     10 H           4.9594    3.2028   -0.8812 H       1  LIG1        0.0660
     11 H           4.2986    2.1003    0.3548 H       1  LIG1        0.0660
     12 H           3.9066    1.8506   -1.3743 H       1  LIG1        0.0660
     13 C          -0.7772    5.6675    0.5803 C.ar    1  LIG1        0.2262
     14 C           0.4027    5.0681    0.0687 C.ar    1  LIG1        0.0841
     15 C           1.3142    5.9159   -0.5419 C.ar    1  LIG1       -0.0230
     16 C           1.0710    7.2931   -0.6420 C.ar    1  LIG1        0.0519
     17 C          -0.1217    7.7655   -0.0986 C.ar    1  LIG1        0.0982
     18 N          -1.0064    6.9528    0.4906 N.ar    1  LIG1       -0.2104
     19 H           2.2276    5.5012   -0.9491 H       1  LIG1        0.0645
     20 O          -1.6900    4.8876    1.1847 O.3     1  LIG1       -0.4792
     21 C          -2.8640    5.5431    1.6544 C.3     1  LIG1        0.0804
     22 H          -3.4909    4.7506    2.0540 H       1  LIG1        0.0660
     23 H          -2.6098    6.2658    2.4299 H       1  LIG1        0.0660
     24 H          -3.3597    6.0640    0.8353 H       1  LIG1        0.0660
     25 N           2.0136    8.1441   -1.2360 N.pl3   1  LIG1       -0.3563
     26 H           2.6388    7.6688   -1.8729 H       1  LIG1        0.1424
     27 H           1.6095    8.9702   -1.6604 H       1  LIG1        0.1424
     28 C          -1.7341    9.6538   -0.5946 C.ar    1  LIG1        0.1233
     29 C          -0.4788    9.2122   -0.1352 C.ar    1  LIG1        0.0396
     30 C           0.4121   10.1804    0.3030 C.ar    1  LIG1       -0.0061
     31 C           0.0615   11.5317    0.3038 C.ar    1  LIG1        0.1449
     32 C          -1.2318   11.8706   -0.1294 C.ar    1  LIG1        0.1309
     33 N          -2.0728   10.9349   -0.5779 N.ar    1  LIG1       -0.2326
     34 H           1.4021    9.9097    0.6497 H       1  LIG1        0.0662
     35 C          -2.7085    8.7371   -1.1545 C.1     1  LIG1       -0.0491
     36 C          -3.5167    8.0006   -1.6509 C.1     1  LIG1       -0.1124
     37 H          -4.2322    7.3438   -2.0883 H       1  LIG1        0.1232
     38 O           1.0167   12.3962    0.6822 O.3     1  LIG1       -0.5045
     39 H           0.6909   13.2875    0.8871 H       1  LIG1        0.2922
     40 C          -1.7887   13.2418   -0.2252 C.ar    1  LIG1        0.0841
     41 C          -1.5027   14.4959    0.3097 C.ar    1  LIG1        0.0515
     42 C          -2.4735   15.4084   -0.2003 C.ar    1  LIG1       -0.0283
     43 C          -3.3135   14.6861   -1.0089 C.ar    1  LIG1        0.0034
     44 N          -2.8857   13.3954   -1.0087 N.ar    1  LIG1       -0.3584
     45 H          -3.3068   12.5922   -1.4587 H       1  LIG1        0.1654
     46 H          -4.1753   14.9909   -1.5761 H       1  LIG1        0.0807
     47 C          -0.4806   14.8340    1.2533 C.1     1  LIG1       -0.0675
     48 C           0.3805   15.1165    2.0477 C.1     1  LIG1       -0.1138
     49 H           1.1299   15.3693    2.7621 H       1  LIG1        0.1232
     50 H          -2.5287   16.4590    0.0260 H       1  LIG1        0.0645
@<TRIPOS>BOND
     1    37    36    1
     2    26    25    1
     3    27    25    1
     4    36    35    3
     5    46    43    1
     6    45    44    1
     7    12     9    1
     8    25    16    1
     9    35    28    1
    10    43    44   ar
    11    43    42   ar
    12    44    40   ar
    13    19    15    1
    14    10     9    1
    15    16    15   ar
    16    16    17   ar
    17     9     8    1
    18     9    11    1
    19    28    33   ar
    20    28    29   ar
    21    33    32   ar
    22    15    14   ar
    23     8     3    1
    24    40    32    1
    25    40    41   ar
    26    42    50    1
    27    42    41   ar
    28    29    17    1
    29    29    30   ar
    30    32    31   ar
    31    17    18   ar
    32     3     2   ar
    33     3     4   ar
    34     7     2    1
    35    14     4    1
    36    14    13   ar
    37     2     1   ar
    38     4     5   ar
    39    30    31   ar
    40    30    34    1
    41    31    38    1
    42    41    47    1
    43    18    13   ar
    44     1     5   ar
    45     1     6    1
    46    13    20    1
    47    38    39    1
    48    24    21    1
    49    20    21    1
    50    47    48    3
    51    21    22    1
    52    21    23    1
    53    48    49    1
