@<TRIPOS>MOLECULE
mol_data/opt/m06hf/geoms/mol2/12al12al-.out
 24 25 0 0 0
SMALL
GASTEIGER

@<TRIPOS>ATOM
      1 C           0.0783    1.8044    0.0000 C.ar    1  LIG1        0.0964
      2 C           1.4315    1.7104   -0.0000 C.ar    1  LIG1        0.0187
      3 C           1.9060    3.0720   -0.0000 C.ar    1  LIG1        0.1687
      4 C           0.7966    3.8655   -0.0001 C.ar    1  LIG1        0.2110
      5 O          -0.3133    3.0876   -0.0001 O.2     1  LIG1       -0.4560
      6 H          -0.7012    1.0638    0.0001 H       1  LIG1        0.1031
      7 H           2.0114    0.8039   -0.0000 H       1  LIG1        0.0686
      8 O           3.1761    3.5281   -0.0000 O.3     1  LIG1       -0.4912
      9 C           4.1849    2.5350   -0.0000 C.3     1  LIG1        0.0790
     10 H           5.1310    3.0691   -0.0001 H       1  LIG1        0.0660
     11 H           4.1113    1.9126    0.8950 H       1  LIG1        0.0660
     12 H           4.1112    1.9126   -0.8951 H       1  LIG1        0.0660
     13 C           0.5943    5.3017   -0.0001 C.ar    1  LIG1        0.1770
     14 C          -0.5435    6.0444   -0.0001 C.ar    1  LIG1        0.0292
     15 C          -0.0949    7.4086   -0.0002 C.ar    1  LIG1        0.1583
     16 C           1.2658    7.3792   -0.0002 C.ar    1  LIG1        0.1342
     17 O           1.6847    6.0867   -0.0001 O.2     1  LIG1       -0.4560
     18 H           2.0294    8.1337   -0.0002 H       1  LIG1        0.1068
     19 H          -1.5597    5.6920   -0.0001 H       1  LIG1        0.0693
     20 O          -0.9393    8.4637   -0.0002 O.3     1  LIG1       -0.4919
     21 C          -0.3041    9.7273   -0.0002 C.3     1  LIG1        0.0789
     22 H          -1.0950   10.4722   -0.0002 H       1  LIG1        0.0660
     23 H           0.3154    9.8385    0.8946 H       1  LIG1        0.0660
     24 H           0.3154    9.8385   -0.8950 H       1  LIG1        0.0660
@<TRIPOS>BOND
     1    12     9    1
     2    24    21    1
     3    22    21    1
     4    18    16    1
     5    21    20    1
     6    21    23    1
     7    20    15    1
     8    16    15   ar
     9    16    17   ar
    10    15    14   ar
    11    17    13   ar
    12    14    19    1
    13    14    13   ar
    14    13     4    1
    15    10     9    1
    16     4     5   ar
    17     4     3   ar
    18     5     1   ar
    19     9     8    1
    20     9    11    1
    21     8     3    1
    22     3     2   ar
    23     2     7    1
    24     2     1   ar
    25     1     6    1
