@<TRIPOS>MOLECULE
mol_data/opt/m06hf/geoms/mol2/12al12al12al12al-.out
 46 49 0 0 0
SMALL
GASTEIGER

@<TRIPOS>ATOM
      1 C           0.6271    1.4200   -0.0004 C.ar    1  LIG1        0.0964
      2 C           1.9762    1.5793    0.0001 C.ar    1  LIG1        0.0187
      3 C           2.1825    3.0025   -0.0001 C.ar    1  LIG1        0.1687
      4 C           0.9438    3.5741   -0.0001 C.ar    1  LIG1        0.2111
      5 O           0.0012    2.6058   -0.0001 O.2     1  LIG1       -0.4560
      6 H          -0.0018    0.5479   -0.0006 H       1  LIG1        0.1031
      7 H           2.7155    0.7974    0.0003 H       1  LIG1        0.0686
      8 O           3.3348    3.7115   -0.0000 O.3     1  LIG1       -0.4912
      9 C           4.5258    2.9419    0.0000 C.3     1  LIG1        0.0790
     10 H           5.3460    3.6542    0.0000 H       1  LIG1        0.0660
     11 H           4.5758    2.3182    0.8955 H       1  LIG1        0.0660
     12 H           4.5759    2.3181   -0.8954 H       1  LIG1        0.0660
     13 C           0.5449    4.9655   -0.0001 C.ar    1  LIG1        0.1780
     14 C           1.2920    6.1084   -0.0001 C.ar    1  LIG1        0.0300
     15 C           0.3315    7.1731   -0.0001 C.ar    1  LIG1        0.1694
     16 C          -0.9043    6.5915   -0.0001 C.ar    1  LIG1        0.2121
     17 O          -0.7679    5.2440   -0.0001 O.2     1  LIG1       -0.4447
     18 H           2.3672    6.1543   -0.0001 H       1  LIG1        0.0694
     19 O           0.5267    8.5110   -0.0001 O.3     1  LIG1       -0.4912
     20 C           1.8823    8.9286   -0.0002 C.3     1  LIG1        0.0790
     21 H           1.8640   10.0151   -0.0002 H       1  LIG1        0.0660
     22 H           2.3919    8.5650    0.8948 H       1  LIG1        0.0660
     23 H           2.3918    8.5650   -0.8951 H       1  LIG1        0.0660
     24 C          -2.2262    7.1757   -0.0001 C.ar    1  LIG1        0.1780
     25 C          -2.6314    8.4788   -0.0002 C.ar    1  LIG1        0.0300
     26 C          -4.0674    8.4228   -0.0002 C.ar    1  LIG1        0.1694
     27 C          -4.4082    7.0994   -0.0002 C.ar    1  LIG1        0.2121
     28 O          -3.2804    6.3448   -0.0002 O.2     1  LIG1       -0.4447
     29 H          -1.9808    9.3352   -0.0002 H       1  LIG1        0.0694
     30 O          -4.9539    9.4401   -0.0003 O.3     1  LIG1       -0.4912
     31 C          -4.3932   10.7400   -0.0004 C.3     1  LIG1        0.0790
     32 H          -5.2333   11.4290   -0.0004 H       1  LIG1        0.0660
     33 H          -3.7857   10.8967    0.8942 H       1  LIG1        0.0660
     34 H          -3.7857   10.8966   -0.8950 H       1  LIG1        0.0660
     35 C          -5.6687    6.3863   -0.0002 C.ar    1  LIG1        0.1770
     36 C          -5.9379    5.0534   -0.0002 C.ar    1  LIG1        0.0292
     37 C          -7.3713    4.9663   -0.0003 C.ar    1  LIG1        0.1583
     38 C          -7.8479    6.2405   -0.0004 C.ar    1  LIG1        0.1342
     39 O          -6.8022    7.1086   -0.0003 O.2     1  LIG1       -0.4560
     40 H          -8.8312    6.6718   -0.0004 H       1  LIG1        0.1068
     41 H          -5.2313    4.2423   -0.0001 H       1  LIG1        0.0693
     42 O          -8.0398    3.7910   -0.0003 O.3     1  LIG1       -0.4919
     43 C          -9.4483    3.9158   -0.0004 C.3     1  LIG1        0.0789
     44 H          -9.8505    2.9064   -0.0004 H       1  LIG1        0.0660
     45 H          -9.7806    4.4507    0.8938 H       1  LIG1        0.0660
     46 H          -9.7804    4.4507   -0.8947 H       1  LIG1        0.0660
@<TRIPOS>BOND
     1    12     9    1
     2    23    20    1
     3    34    31    1
     4    46    43    1
     5     6     1    1
     6    40    38    1
     7    32    31    1
     8    44    43    1
     9    43    42    1
    10    43    45    1
    11     1     5   ar
    12     1     2   ar
    13    31    30    1
    14    31    33    1
    15    38    39   ar
    16    38    37   ar
    17    39    35   ar
    18    30    26    1
    19    37    42    1
    20    37    36   ar
    21    35    27    1
    22    35    36   ar
    23    26    27   ar
    24    26    25   ar
    25    27    28   ar
    26    21    20    1
    27    36    41    1
    28    25    29    1
    29    25    24   ar
    30    20    19    1
    31    20    22    1
    32    28    24   ar
    33    24    16    1
    34    16    15   ar
    35    16    17   ar
    36    19    15    1
    37    15    14   ar
    38     4    13    1
    39     4     3   ar
    40     4     5   ar
    41    13    17   ar
    42    13    14   ar
    43     3     8    1
    44     3     2   ar
    45    14    18    1
    46     8     9    1
    47     9    10    1
    48     9    11    1
    49     2     7    1
