@<TRIPOS>MOLECULE
mol_data/opt/m06hf/geoms/mol2/12al4ha-6ae12ei4fa-12fi-12da-4ee.out
 92 99 0 0 0
SMALL
GASTEIGER

@<TRIPOS>ATOM
      1 C           2.6465    2.2666    2.0417 C.ar    1  LIG1        0.0962
      2 C           2.4714    1.7729    0.7914 C.ar    1  LIG1        0.0186
      3 C           1.9910    2.8885    0.0197 C.ar    1  LIG1        0.1656
      4 C           1.9271    3.9670    0.8536 C.ar    1  LIG1        0.1779
      5 O           2.3280    3.5676    2.0900 O.2     1  LIG1       -0.4591
      6 H           2.9841    1.8194    2.9597 H       1  LIG1        0.1031
      7 H           2.6492    0.7624    0.4675 H       1  LIG1        0.0686
      8 O           1.6322    2.9139   -1.2937 O.3     1  LIG1       -0.4913
      9 C           1.6047    1.6590   -1.9561 C.3     1  LIG1        0.0790
     10 H           1.2451    1.8573   -2.9618 H       1  LIG1        0.0660
     11 H           2.6070    1.2269   -1.9976 H       1  LIG1        0.0660
     12 H           0.9218    0.9787   -1.4436 H       1  LIG1        0.0660
     13 C           1.7645    6.1380   -0.4284 C.ar    1  LIG1        0.0360
     14 C           1.3393    7.4752   -0.4437 C.ar    1  LIG1       -0.0326
     15 C           1.4927    5.3666    0.7197 C.ar    1  LIG1        0.0415
     16 C           0.6918    8.0493    0.6435 C.ar    1  LIG1       -0.0146
     17 H           1.5106    8.0658   -1.3365 H       1  LIG1        0.0642
     18 C           0.8378    5.9549    1.8058 C.ar    1  LIG1       -0.0486
     19 C           0.4392    7.2814    1.7853 C.ar    1  LIG1       -0.0532
     20 H           0.6593    5.3487    2.6844 H       1  LIG1        0.0625
     21 N           2.4856    5.6316   -1.4944 N.pl3   1  LIG1       -0.3574
     22 H           2.3599    4.6477   -1.7001 H       1  LIG1        0.1423
     23 H           2.4931    6.2167   -2.3162 H       1  LIG1        0.1423
     24 H          -0.0370    7.7258    2.6490 H       1  LIG1        0.0624
     25 C          -1.0009    9.8622    1.0494 C.ar    1  LIG1        0.0362
     26 C           0.2639    9.4746    0.5872 C.ar    1  LIG1        0.0015
     27 C           1.0776   10.4705    0.0625 C.ar    1  LIG1       -0.0350
     28 C           0.6262   11.7928    0.0258 C.ar    1  LIG1        0.0543
     29 C          -0.6416   12.0704    0.5606 C.ar    1  LIG1        0.1225
     30 N          -1.4355   11.1129    1.0438 N.ar    1  LIG1       -0.2500
     31 H           2.0641   10.2373   -0.3169 H       1  LIG1        0.0637
     32 H          -1.6880    9.1144    1.4284 H       1  LIG1        0.0836
     33 C           1.4408   12.8039   -0.5967 C.1     1  LIG1       -0.0674
     34 C           2.1383   13.6165   -1.1403 C.1     1  LIG1       -0.1138
     35 H           2.7439   14.3582   -1.6067 H       1  LIG1        0.1232
     36 C          -1.2006   13.4359    0.6095 C.ar    1  LIG1        0.1705
     37 C          -0.7096   14.6511    1.0007 C.ar    1  LIG1        0.0754
     38 C          -1.8015   15.5919    0.8949 C.ar    1  LIG1        0.0115
     39 C          -2.8566   14.8592    0.4408 C.ar    1  LIG1        0.1434
     40 O          -2.4942   13.5621    0.2795 O.2     1  LIG1       -0.4516
     41 C           0.5862   14.9451    1.5326 C.1     1  LIG1       -0.0655
     42 C           1.6564   15.2224    2.0047 C.1     1  LIG1       -0.1138
     43 H           2.6106   15.4505    2.4193 H       1  LIG1        0.1232
     44 C          -1.7399   17.0405    1.2971 C.3     1  LIG1       -0.0349
     45 H          -2.7115   17.3726    1.6594 H       1  LIG1        0.0279
     46 H          -1.4612   17.6584    0.4434 H       1  LIG1        0.0279
     47 H          -0.9956   17.1567    2.0849 H       1  LIG1        0.0279
     48 C          -4.6982   16.3516   -0.3955 C.ar    1  LIG1        0.1282
     49 C          -6.0505   16.5972   -0.6094 C.ar    1  LIG1       -0.0087
     50 C          -4.2754   15.1492    0.1842 C.ar    1  LIG1        0.0590
     51 C          -6.9956   15.6283   -0.2683 C.ar    1  LIG1        0.0244
     52 H          -6.3747   17.5302   -1.0554 H       1  LIG1        0.0661
     53 C          -5.2361   14.1841    0.5001 C.ar    1  LIG1       -0.0469
     54 C          -6.5859   14.4098    0.2803 C.ar    1  LIG1       -0.0501
     55 H          -4.8980   13.2482    0.9257 H       1  LIG1        0.0626
     56 O          -3.7486   17.2555   -0.7601 O.3     1  LIG1       -0.5060
     57 H          -4.1598   18.0119   -1.1917 H       1  LIG1        0.2922
     58 H          -7.3210   13.6597    0.5347 H       1  LIG1        0.0625
     59 C          -8.4197   15.8893   -0.4890 C.ar    1  LIG1        0.1774
     60 C          -9.1203   16.9825   -0.9094 C.ar    1  LIG1        0.1663
     61 C         -10.5120   16.6341   -0.9405 C.ar    1  LIG1        0.0405
     62 C         -10.5389   15.3413   -0.5074 C.ar    1  LIG1        0.1784
     63 O          -9.2963   14.8862   -0.2473 O.2     1  LIG1       -0.4476
     64 O          -8.5795   18.1739   -1.2924 O.3     1  LIG1       -0.5030
     65 H          -9.1651   18.8951   -1.0355 H       1  LIG1        0.2923
     66 C         -11.6305   17.5192   -1.4245 C.3     1  LIG1       -0.0325
     67 H         -12.4509   16.9128   -1.8070 H       1  LIG1        0.0280
     68 H         -11.2588   18.1515   -2.2326 H       1  LIG1        0.0280
     69 H         -12.0198   18.1442   -0.6193 H       1  LIG1        0.0280
     70 C         -11.6368   14.4144   -0.2997 C.ar    1  LIG1        0.1882
     71 C         -12.9254   14.5883    0.1260 C.ar    1  LIG1        0.1011
     72 C         -13.5445   13.2929    0.1098 C.ar    1  LIG1        0.0024
     73 C         -12.5797   12.4307   -0.3119 C.ar    1  LIG1        0.1383
     74 O         -11.4327   13.1179   -0.5586 O.2     1  LIG1       -0.4503
     75 N         -13.9475   16.8233    0.9157 N.1     1  LIG1       -0.1907
     76 C         -13.4958   15.8274    0.5657 C.1     1  LIG1        0.1031
     77 H         -14.5519   13.0542    0.3956 H       1  LIG1        0.0668
     78 C         -13.6379   10.1501   -0.5610 C.ar    1  LIG1        0.0354
     79 C         -13.4869    8.7739   -0.7666 C.ar    1  LIG1       -0.0445
     80 C         -12.5011   10.9762   -0.5252 C.ar    1  LIG1        0.0338
     81 C         -12.2325    8.2138   -0.9417 C.ar    1  LIG1       -0.0451
     82 H         -14.3736    8.1560   -0.7914 H       1  LIG1        0.0630
     83 C         -11.2393   10.4060   -0.7042 C.ar    1  LIG1       -0.0345
     84 C         -11.1001    9.0350   -0.9123 C.ar    1  LIG1        0.0254
     85 H         -10.3596   11.0338   -0.6819 H       1  LIG1        0.0637
     86 H         -12.1182    7.1511   -1.1030 H       1  LIG1        0.0630
     87 C         -14.9799   10.6594   -0.4111 C.1     1  LIG1       -0.0690
     88 C         -16.1224   11.0182   -0.3007 C.1     1  LIG1       -0.1139
     89 H         -17.1350   11.3379   -0.2069 H       1  LIG1        0.1232
     90 C          -9.7846    8.4691   -1.0962 C.1     1  LIG1       -0.0696
     91 C          -8.6885    8.0025   -1.2510 C.1     1  LIG1       -0.1139
     92 H          -7.7132    7.5957   -1.3892 H       1  LIG1        0.1232
@<TRIPOS>BOND
     1    10     9    1
     2    23    21    1
     3    68    66    1
     4    11     9    1
     5     9    12    1
     6     9     8    1
     7    67    66    1
     8    22    21    1
     9    35    34    1
    10    21    13    1
    11    66    61    1
    12    66    69    1
    13    92    91    1
    14    17    14    1
    15     8     3    1
    16    64    65    1
    17    64    60    1
    18    91    90    3
    19    57    56    1
    20    34    33    3
    21    86    81    1
    22    90    84    1
    23    52    49    1
    24    81    84   ar
    25    81    79   ar
    26    61    60   ar
    27    61    62   ar
    28    84    83   ar
    29    60    59   ar
    30    82    79    1
    31    79    78   ar
    32    56    48    1
    33    83    85    1
    34    83    80   ar
    35    49    48   ar
    36    49    51   ar
    37    33    28    1
    38    78    80   ar
    39    78    87    1
    40    74    73   ar
    41    74    70   ar
    42    80    73    1
    43    62    70    1
    44    62    63   ar
    45    59    51    1
    46    59    63   ar
    47    14    13   ar
    48    14    16   ar
    49    13    15   ar
    50    87    88    3
    51    48    50   ar
    52    31    27    1
    53    73    72   ar
    54    88    89    1
    55    70    71   ar
    56    51    54   ar
    57     3     2   ar
    58     3     4   ar
    59    28    27   ar
    60    28    29   ar
    61    27    26   ar
    62    72    71   ar
    63    72    77    1
    64    71    76    1
    65    50    39    1
    66    50    53   ar
    67    40    39   ar
    68    40    36   ar
    69    54    53   ar
    70    54    58    1
    71    39    38   ar
    72    46    44    1
    73     7     2    1
    74    53    55    1
    75    29    36    1
    76    29    30   ar
    77    76    75    3
    78    26    16    1
    79    26    25   ar
    80    36    37   ar
    81    16    19   ar
    82    15     4    1
    83    15    18   ar
    84     2     1   ar
    85     4     5   ar
    86    38    37   ar
    87    38    44    1
    88    37    41    1
    89    30    25   ar
    90    25    32    1
    91    44    45    1
    92    44    47    1
    93    41    42    3
    94    19    18   ar
    95    19    24    1
    96    18    20    1
    97    42    43    1
    98     1     5   ar
    99     1     6    1
