@<TRIPOS>MOLECULE
mol_data/opt/m06hf/geoms/mol2/12al12al-12al12al.out
 46 49 0 0 0
SMALL
GASTEIGER

@<TRIPOS>ATOM
      1 C           0.4465    1.6309    0.0005 C.ar    1  LIG1        0.0964
      2 C           1.7971    1.7540    0.0004 C.ar    1  LIG1        0.0187
      3 C           2.0482    3.1733    0.0001 C.ar    1  LIG1        0.1687
      4 C           0.8251    3.7783    0.0001 C.ar    1  LIG1        0.2111
      5 O          -0.1463    2.8345    0.0004 O.2     1  LIG1       -0.4560
      6 H          -0.2049    0.7754    0.0007 H       1  LIG1        0.1031
      7 H           2.5138    0.9513    0.0005 H       1  LIG1        0.0686
      8 O           3.2291    3.8282   -0.0001 O.3     1  LIG1       -0.4912
      9 C           4.3824    3.0057   -0.0000 C.3     1  LIG1        0.0790
     10 H           5.2342    3.6801   -0.0002 H       1  LIG1        0.0660
     11 H           4.4074    2.3796    0.8956 H       1  LIG1        0.0660
     12 H           4.4072    2.3793   -0.8954 H       1  LIG1        0.0660
     13 C           0.4133    5.1658   -0.0000 C.ar    1  LIG1        0.1780
     14 C          -0.8072    5.7574   -0.0000 C.ar    1  LIG1        0.0300
     15 C          -0.5553    7.1721   -0.0003 C.ar    1  LIG1        0.1694
     16 C           0.8111    7.3272   -0.0003 C.ar    1  LIG1        0.2121
     17 O           1.3867    6.0878   -0.0002 O.2     1  LIG1       -0.4447
     18 H          -1.7745    5.2865    0.0001 H       1  LIG1        0.0694
     19 O          -1.5918    8.0262   -0.0003 O.3     1  LIG1       -0.4912
     20 C          -1.3392    9.4259   -0.0010 C.3     1  LIG1        0.0790
     21 H          -2.3191    9.8957   -0.0012 H       1  LIG1        0.0660
     22 H          -0.7797    9.7136    0.8893 H       1  LIG1        0.0660
     23 H          -0.7796    9.7128   -0.8914 H       1  LIG1        0.0660
     24 C           1.8221    8.3726   -0.0004 C.ar    1  LIG1        0.1780
     25 C           3.1800    8.2264   -0.0005 C.ar    1  LIG1        0.0300
     26 C           3.6982    9.5644   -0.0004 C.ar    1  LIG1        0.1694
     27 C           2.6243   10.4050   -0.0003 C.ar    1  LIG1        0.2121
     28 O           1.4832    9.6709   -0.0003 O.2     1  LIG1       -0.4447
     29 H           3.7029    7.2854   -0.0006 H       1  LIG1        0.0694
     30 O           4.9809    9.9925   -0.0004 O.3     1  LIG1       -0.4912
     31 C           5.9652    8.9712   -0.0006 C.3     1  LIG1        0.0790
     32 H           6.9260    9.4785   -0.0006 H       1  LIG1        0.0660
     33 H           5.8712    8.3523    0.8942 H       1  LIG1        0.0660
     34 H           5.8711    8.3525   -0.8956 H       1  LIG1        0.0660
     35 C           2.5299   11.8489   -0.0001 C.ar    1  LIG1        0.1770
     36 C           3.4951   12.8101   -0.0000 C.ar    1  LIG1        0.0292
     37 C           2.7732   14.0563    0.0002 C.ar    1  LIG1        0.1583
     38 C           1.4513   13.7460    0.0002 C.ar    1  LIG1        0.1342
     39 O           1.3028   12.3966    0.0000 O.2     1  LIG1       -0.4560
     40 H           0.5629   14.3479    0.0003 H       1  LIG1        0.1068
     41 H           4.5562   12.6321   -0.0001 H       1  LIG1        0.0693
     42 O           3.2645   15.3194    0.0003 O.3     1  LIG1       -0.4919
     43 C           4.6760   15.4217    0.0002 C.3     1  LIG1        0.0789
     44 H           4.9026   16.4849    0.0003 H       1  LIG1        0.0660
     45 H           5.0957   14.9541    0.8943 H       1  LIG1        0.0660
     46 H           5.0956   14.9543   -0.8941 H       1  LIG1        0.0660
@<TRIPOS>BOND
     1    34    31    1
     2    12     9    1
     3    46    43    1
     4    23    20    1
     5    21    20    1
     6    20    19    1
     7    20    22    1
     8    32    31    1
     9    31    30    1
    10    31    33    1
    11    29    25    1
    12    25    26   ar
    13    25    24   ar
    14    30    26    1
    15    26    27   ar
    16    24    16    1
    17    24    28   ar
    18    19    15    1
    19    16    15   ar
    20    16    17   ar
    21    28    27   ar
    22    27    35    1
    23    15    14   ar
    24    17    13   ar
    25    10     9    1
    26    41    36    1
    27    35    36   ar
    28    35    39   ar
    29     8     9    1
    30     8     3    1
    31    14    13   ar
    32    14    18    1
    33    13     4    1
    34     9    11    1
    35    36    37   ar
    36    39    38   ar
    37     4     3   ar
    38     4     5   ar
    39     3     2   ar
    40    37    38   ar
    41    37    42    1
    42    38    40    1
    43    43    42    1
    44    43    44    1
    45    43    45    1
    46     5     1   ar
    47     2     7    1
    48     2     1   ar
    49     1     6    1
