@<TRIPOS>MOLECULE
mol_data/opt/m06hf/geoms/mol2/12al13fa-13da-4de.out
 44 47 0 0 0
SMALL
GASTEIGER

@<TRIPOS>ATOM
      1 C           0.6515    1.6663    1.2247 C.ar    1  LIG1        0.0963
      2 C           1.9070    1.6584    0.7199 C.ar    1  LIG1        0.0187
      3 C           2.1579    3.0150    0.3160 C.ar    1  LIG1        0.1672
      4 C           1.0404    3.7335    0.6103 C.ar    1  LIG1        0.1958
      5 O           0.1204    2.9128    1.1663 O.2     1  LIG1       -0.4575
      6 H           0.0257    0.9033    1.6509 H       1  LIG1        0.1031
      7 H           2.5811    0.8225    0.6435 H       1  LIG1        0.0686
      8 O           3.2916    3.5185   -0.2660 O.3     1  LIG1       -0.4913
      9 C           3.2619    3.4672   -1.7002 C.3     1  LIG1        0.0790
     10 H           4.2010    3.8978   -2.0376 H       1  LIG1        0.0660
     11 H           3.1765    2.4304   -2.0262 H       1  LIG1        0.0660
     12 H           2.4197    4.0539   -2.0695 H       1  LIG1        0.0660
     13 C           0.7116    5.1340    0.4391 C.ar    1  LIG1        0.1282
     14 C           1.5230    6.2161    0.1411 C.ar    1  LIG1        0.1458
     15 C           0.6994    7.3687    0.0880 C.ar    1  LIG1        0.0074
     16 C          -0.5855    6.9520    0.3660 C.ar    1  LIG1        0.0682
     17 N          -0.5745    5.6001    0.5615 N.ar    1  LIG1       -0.3475
     18 H          -1.3264    5.0533    0.9520 H       1  LIG1        0.1661
     19 O           2.8568    6.2252   -0.0787 O.3     1  LIG1       -0.5045
     20 H           3.2248    5.3326    0.0383 H       1  LIG1        0.2922
     21 H           1.0149    8.3735   -0.1355 H       1  LIG1        0.0676
     22 C          -1.8254    7.7153    0.4341 C.ar    1  LIG1        0.0810
     23 C          -2.0736    9.0050    0.8733 C.ar    1  LIG1        0.0790
     24 C          -3.4598    9.2724    0.6971 C.ar    1  LIG1       -0.0183
     25 C          -4.0197    8.1347    0.1653 C.ar    1  LIG1        0.0495
     26 N          -3.0152    7.2040    0.0219 N.ar    1  LIG1       -0.3520
     27 H          -3.1035    6.3442   -0.5000 H       1  LIG1        0.1660
     28 N          -0.3034   10.5939    1.8783 N.1     1  LIG1       -0.1908
     29 C          -1.0889    9.8845    1.4331 C.1     1  LIG1        0.1013
     30 H          -3.9715   10.1834    0.9577 H       1  LIG1        0.0652
     31 C          -6.2933    8.7341   -0.7401 C.ar    1  LIG1        0.0609
     32 C          -7.6053    8.3856   -1.0671 C.ar    1  LIG1       -0.0426
     33 C          -5.4095    7.7948   -0.1852 C.ar    1  LIG1        0.0168
     34 C          -8.0548    7.0905   -0.8606 C.ar    1  LIG1       -0.0451
     35 H          -8.2577    9.1361   -1.4916 H       1  LIG1        0.0631
     36 C          -5.8813    6.4991    0.0311 C.ar    1  LIG1       -0.0360
     37 C          -7.1870    6.1418   -0.3094 C.ar    1  LIG1        0.0254
     38 H          -5.2428    5.7622    0.5000 H       1  LIG1        0.0637
     39 H          -9.0658    6.8072   -1.1160 H       1  LIG1        0.0630
     40 N          -5.5738   11.1833   -1.2114 N.1     1  LIG1       -0.1908
     41 C          -5.8682   10.0941   -1.0012 C.1     1  LIG1        0.0998
     42 C          -7.6421    4.7922   -0.0736 C.1     1  LIG1       -0.0696
     43 C          -8.0210    3.6694    0.1230 C.1     1  LIG1       -0.1139
     44 H          -8.3589    2.6741    0.3005 H       1  LIG1        0.1232
@<TRIPOS>BOND
     1    12     9    1
     2    10     9    1
     3    11     9    1
     4     9     8    1
     5    35    32    1
     6    40    41    3
     7    39    34    1
     8    32    34   ar
     9    32    31   ar
    10    41    31    1
    11    34    37   ar
    12    31    33   ar
    13    27    26    1
    14    37    42    1
    15    37    36   ar
    16     8     3    1
    17    33    36   ar
    18    33    25    1
    19    21    15    1
    20    19    20    1
    21    19    14    1
    22    42    43    3
    23    26    25   ar
    24    26    22   ar
    25    36    38    1
    26    15    14   ar
    27    15    16   ar
    28    43    44    1
    29    14    13   ar
    30    25    24   ar
    31     3     4   ar
    32     3     2   ar
    33    16    22    1
    34    16    17   ar
    35    22    23   ar
    36    13    17   ar
    37    13     4    1
    38    17    18    1
    39     4     5   ar
    40     7     2    1
    41    24    23   ar
    42    24    30    1
    43     2     1   ar
    44    23    29    1
    45     5     1   ar
    46     1     6    1
    47    29    28    3
