@<TRIPOS>MOLECULE
mol_data/opt/m06hf/geoms/mol2/12al12al-12al-12al.out
 46 49 0 0 0
SMALL
GASTEIGER

@<TRIPOS>ATOM
      1 C           0.4044    1.8406   -0.0051 C.ar    1  LIG1        0.0964
      2 C           1.7607    1.8397    0.0048 C.ar    1  LIG1        0.0187
      3 C           2.1417    3.2304    0.0077 C.ar    1  LIG1        0.1687
      4 C           0.9801    3.9463   -0.0006 C.ar    1  LIG1        0.2111
      5 O          -0.0736    3.0932   -0.0083 O.2     1  LIG1       -0.4560
      6 H          -0.3220    1.0474   -0.0105 H       1  LIG1        0.1031
      7 H           2.3990    0.9734    0.0093 H       1  LIG1        0.0686
      8 O           3.3816    3.7636    0.0173 O.3     1  LIG1       -0.4912
      9 C           4.4412    2.8243    0.0289 C.3     1  LIG1        0.0790
     10 H           5.3583    3.4055    0.0376 H       1  LIG1        0.0660
     11 H           4.3920    2.2003    0.9245 H       1  LIG1        0.0660
     12 H           4.4100    2.1984   -0.8661 H       1  LIG1        0.0660
     13 C           0.6631    5.3596   -0.0022 C.ar    1  LIG1        0.1780
     14 C          -0.5343    5.9985   -0.0079 C.ar    1  LIG1        0.0300
     15 C          -0.2237    7.3958   -0.0066 C.ar    1  LIG1        0.1694
     16 C           1.1493    7.5036   -0.0004 C.ar    1  LIG1        0.2121
     17 O           1.6704    6.2393    0.0022 O.2     1  LIG1       -0.4447
     18 H          -1.5202    5.5687   -0.0125 H       1  LIG1        0.0694
     19 O          -1.2372    8.2838   -0.0125 O.3     1  LIG1       -0.4912
     20 C          -0.9322    9.6645   -0.0138 C.3     1  LIG1        0.0790
     21 H          -1.8881   10.1815   -0.0230 H       1  LIG1        0.0660
     22 H          -0.3776    9.9272    0.8894 H       1  LIG1        0.0660
     23 H          -0.3628    9.9223   -0.9091 H       1  LIG1        0.0660
     24 C           2.1891    8.5390    0.0040 C.ar    1  LIG1        0.1780
     25 C           2.2549    9.8994    0.0113 C.ar    1  LIG1        0.0300
     26 C           3.6477   10.2406    0.0105 C.ar    1  LIG1        0.1694
     27 C           4.3424    9.0576    0.0027 C.ar    1  LIG1        0.2121
     28 O           3.4386    8.0379   -0.0010 O.2     1  LIG1       -0.4447
     29 H           1.4695   10.6297    0.0172 H       1  LIG1        0.0694
     30 O           3.9964   11.5405    0.0172 O.3     1  LIG1       -0.4912
     31 C           5.3732   11.8842    0.0173 C.3     1  LIG1        0.0790
     32 H           5.4017   12.9708    0.0225 H       1  LIG1        0.0660
     33 H           5.8644   11.4866    0.9061 H       1  LIG1        0.0660
     34 H           5.8624   11.4951   -0.8762 H       1  LIG1        0.0660
     35 C           5.7125    8.5554   -0.0034 C.ar    1  LIG1        0.1770
     36 C           6.1299    7.2576   -0.0093 C.ar    1  LIG1        0.0292
     37 C           7.5693    7.3309   -0.0151 C.ar    1  LIG1        0.1583
     38 C           7.8975    8.6459   -0.0119 C.ar    1  LIG1        0.1342
     39 O           6.7622    9.3926   -0.0048 O.2     1  LIG1       -0.4560
     40 H           8.8376    9.1645   -0.0141 H       1  LIG1        0.1068
     41 H           5.4833    6.3960   -0.0097 H       1  LIG1        0.0693
     42 O           8.4753    6.3229   -0.0230 O.3     1  LIG1       -0.4919
     43 C           7.9335    5.0170   -0.0224 C.3     1  LIG1        0.0789
     44 H           8.7817    4.3374   -0.0308 H       1  LIG1        0.0660
     45 H           7.3353    4.8519    0.8777 H       1  LIG1        0.0660
     46 H           7.3211    4.8564   -0.9136 H       1  LIG1        0.0660
@<TRIPOS>BOND
     1    46    43    1
     2    23    20    1
     3    34    31    1
     4    12     9    1
     5    44    43    1
     6    42    43    1
     7    42    37    1
     8    21    20    1
     9    43    45    1
    10    37    38   ar
    11    37    36   ar
    12    40    38    1
    13    20    19    1
    14    20    22    1
    15    18    14    1
    16    19    15    1
    17    38    39   ar
    18     6     1    1
    19    41    36    1
    20    36    35   ar
    21     5     1   ar
    22     5     4   ar
    23    14    15   ar
    24    14    13   ar
    25    15    16   ar
    26     1     2   ar
    27    39    35   ar
    28    35    27    1
    29    13     4    1
    30    13    17   ar
    31    28    27   ar
    32    28    24   ar
    33     4     3   ar
    34    16    17   ar
    35    16    24    1
    36    27    26   ar
    37    24    25   ar
    38     2     3   ar
    39     2     7    1
    40     3     8    1
    41    26    25   ar
    42    26    30    1
    43    25    29    1
    44    30    31    1
    45     8     9    1
    46    31    32    1
    47    31    33    1
    48     9    10    1
    49     9    11    1
