@<TRIPOS>MOLECULE
mol_data/opt/m06hf/geoms/mol2/12al12al-12al.out
 35 37 0 0 0
SMALL
GASTEIGER

@<TRIPOS>ATOM
      1 C           0.2005    1.8205   -0.0900 C.ar    1  LIG1        0.0964
      2 C           1.5564    1.8206   -0.0567 C.ar    1  LIG1        0.0187
      3 C           1.9345    3.2113   -0.0318 C.ar    1  LIG1        0.1687
      4 C           0.7719    3.9251   -0.0539 C.ar    1  LIG1        0.2111
      5 O          -0.2805    3.0730   -0.0885 O.2     1  LIG1       -0.4560
      6 H          -0.5259    1.0281   -0.1175 H       1  LIG1        0.1031
      7 H           2.1981    0.9566   -0.0506 H       1  LIG1        0.0686
      8 O           3.1691    3.7561    0.0095 O.3     1  LIG1       -0.4912
      9 C           4.2440    2.8337    0.0090 C.3     1  LIG1        0.0790
     10 H           5.1523    3.4292    0.0367 H       1  LIG1        0.0660
     11 H           4.1977    2.1892    0.8908 H       1  LIG1        0.0660
     12 H           4.2281    2.2264   -0.8995 H       1  LIG1        0.0660
     13 C           0.4837    5.3439   -0.0450 C.ar    1  LIG1        0.1780
     14 C          -0.6822    6.0351    0.0107 C.ar    1  LIG1        0.0300
     15 C          -0.3115    7.4225   -0.0088 C.ar    1  LIG1        0.1694
     16 C           1.0595    7.4650   -0.0865 C.ar    1  LIG1        0.2121
     17 O           1.5288    6.1818   -0.1059 O.2     1  LIG1       -0.4447
     18 H          -1.6830    5.6453    0.0693 H       1  LIG1        0.0694
     19 O          -1.2667    8.3674    0.0609 O.3     1  LIG1       -0.4912
     20 C          -0.8724    9.7225    0.2129 C.3     1  LIG1        0.0790
     21 H          -1.7902   10.2758    0.3935 H       1  LIG1        0.0660
     22 H          -0.1952    9.8272    1.0627 H       1  LIG1        0.0660
     23 H          -0.3818   10.0796   -0.6916 H       1  LIG1        0.0660
     24 C           2.1528    8.4298   -0.1253 C.ar    1  LIG1        0.1770
     25 C           3.4806    8.1919    0.0673 C.ar    1  LIG1        0.0292
     26 C           4.1212    9.4679   -0.1187 C.ar    1  LIG1        0.1583
     27 C           3.1408   10.3606   -0.4050 C.ar    1  LIG1        0.1342
     28 O           1.9397    9.7242   -0.4138 O.2     1  LIG1       -0.4560
     29 H           3.1495   11.4135   -0.6131 H       1  LIG1        0.1068
     30 H           3.9120    7.2342    0.3027 H       1  LIG1        0.0693
     31 O           5.4363    9.7799   -0.0285 O.3     1  LIG1       -0.4919
     32 C           6.3093    8.6859    0.1849 C.3     1  LIG1        0.0789
     33 H           7.3140    9.1001    0.1978 H       1  LIG1        0.0660
     34 H           6.0960    8.2050    1.1427 H       1  LIG1        0.0660
     35 H           6.2180    7.9576   -0.6245 H       1  LIG1        0.0660
@<TRIPOS>BOND
     1    12     9    1
     2    23    20    1
     3    35    32    1
     4    29    27    1
     5    28    27   ar
     6    28    24   ar
     7    27    26   ar
     8    24    16    1
     9    24    25   ar
    10    26    31    1
    11    26    25   ar
    12     6     1    1
    13    17    16   ar
    14    17    13   ar
    15     1     5   ar
    16     1     2   ar
    17     5     4   ar
    18    16    15   ar
    19     2     7    1
    20     2     3   ar
    21     4    13    1
    22     4     3   ar
    23    13    14   ar
    24     3     8    1
    25    31    32    1
    26    15    14   ar
    27    15    19    1
    28     9     8    1
    29     9    10    1
    30     9    11    1
    31    14    18    1
    32    19    20    1
    33    25    30    1
    34    32    33    1
    35    32    34    1
    36    20    21    1
    37    20    22    1
