@<TRIPOS>MOLECULE
mol_data/opt/m06hf/geoms/mol2/12al12al.out
 24 25 0 0 0
SMALL
GASTEIGER

@<TRIPOS>ATOM
      1 C           0.0900    1.6728   -0.0001 C.ar    1  LIG1        0.0964
      2 C           1.4478    1.6862    0.0001 C.ar    1  LIG1        0.0187
      3 C           1.8059    3.0797   -0.0000 C.ar    1  LIG1        0.1687
      4 C           0.6369    3.7812   -0.0001 C.ar    1  LIG1        0.2110
      5 O          -0.4051    2.9199   -0.0000 O.2     1  LIG1       -0.4560
      6 H          -0.6278    0.8720   -0.0002 H       1  LIG1        0.1031
      7 H           2.0975    0.8286    0.0002 H       1  LIG1        0.0686
      8 O           3.0281    3.6620   -0.0001 O.3     1  LIG1       -0.4912
      9 C           4.1308    2.7722   -0.0000 C.3     1  LIG1        0.0790
     10 H           5.0219    3.3938   -0.0001 H       1  LIG1        0.0660
     11 H           4.1155    2.1458    0.8954 H       1  LIG1        0.0660
     12 H           4.1155    2.1457   -0.8954 H       1  LIG1        0.0660
     13 C           0.3904    5.2108   -0.0001 C.ar    1  LIG1        0.1770
     14 C           1.2554    6.2636   -0.0001 C.ar    1  LIG1        0.0292
     15 C           0.4127    7.4309   -0.0001 C.ar    1  LIG1        0.1583
     16 C          -0.8712    6.9889   -0.0001 C.ar    1  LIG1        0.1342
     17 O          -0.8832    5.6330   -0.0001 O.2     1  LIG1       -0.4560
     18 H          -1.8166    7.4976   -0.0002 H       1  LIG1        0.1068
     19 H           2.3289    6.1914   -0.0001 H       1  LIG1        0.0693
     20 O           0.7728    8.7380   -0.0001 O.3     1  LIG1       -0.4919
     21 C           2.1666    8.9849   -0.0002 C.3     1  LIG1        0.0789
     22 H           2.2825   10.0656   -0.0002 H       1  LIG1        0.0660
     23 H           2.6322    8.5627    0.8939 H       1  LIG1        0.0660
     24 H           2.6322    8.5627   -0.8943 H       1  LIG1        0.0660
@<TRIPOS>BOND
     1    12     9    1
     2    24    21    1
     3    22    21    1
     4    21    20    1
     5    21    23    1
     6     6     1    1
     7    18    16    1
     8     1     5   ar
     9     1     2   ar
    10    16    15   ar
    11    16    17   ar
    12    20    15    1
    13    15    14   ar
    14    14    19    1
    15    14    13   ar
    16    13    17   ar
    17    13     4    1
    18     8     3    1
    19     8     9    1
    20     4     3   ar
    21     4     5   ar
    22    10     9    1
    23     3     2   ar
    24     9    11    1
    25     2     7    1
