@<TRIPOS>MOLECULE
mol_data/opt/m06hf/geoms/mol2/12al13ha-12li4ff13hl6di4hh13ah-.out
 100 107 0 0 0
SMALL
GASTEIGER

@<TRIPOS>ATOM
      1 C           1.4897    2.5333   -1.9697 C.ar    1  LIG1        0.0963
      2 C           2.6512    2.8691   -2.5798 C.ar    1  LIG1        0.0187
      3 C           2.7973    4.2857   -2.3622 C.ar    1  LIG1        0.1671
      4 C           1.7242    4.6883   -1.6233 C.ar    1  LIG1        0.1940
      5 O           0.9270    3.6115   -1.3921 O.2     1  LIG1       -0.4576
      6 H           0.9630    1.6017   -1.8668 H       1  LIG1        0.1031
      7 H           3.3077    2.2067   -3.1169 H       1  LIG1        0.0686
      8 O           3.7736    5.1206   -2.8137 O.3     1  LIG1       -0.4913
      9 C           4.8977    4.4880   -3.4025 C.3     1  LIG1        0.0790
     10 H           5.5971    5.2818   -3.6498 H       1  LIG1        0.0660
     11 H           5.3562    3.7911   -2.6976 H       1  LIG1        0.0660
     12 H           4.6024    3.9619   -4.3130 H       1  LIG1        0.0660
     13 C           1.2970    5.9595   -1.0721 C.ar    1  LIG1        0.1072
     14 C           2.0074    7.1021   -0.7361 C.ar    1  LIG1        0.0540
     15 C           1.0706    8.0342   -0.2155 C.ar    1  LIG1       -0.0118
     16 C          -0.1700    7.4229   -0.2408 C.ar    1  LIG1        0.0881
     17 N          -0.0233    6.1774   -0.7557 N.ar    1  LIG1       -0.3477
     18 H          -0.7692    5.5166   -0.9073 H       1  LIG1        0.1661
     19 N           3.3953    7.2786   -0.8100 N.pl3   1  LIG1       -0.3562
     20 H           3.8215    6.7028   -1.5286 H       1  LIG1        0.1424
     21 H           3.6501    8.2510   -0.9238 H       1  LIG1        0.1424
     22 H           1.2669    9.0365    0.1286 H       1  LIG1        0.0658
     23 C          -1.4579    7.9187    0.2046 C.ar    1  LIG1        0.1934
     24 C          -1.8161    9.0190    0.9208 C.ar    1  LIG1        0.1706
     25 C          -3.2474    9.0018    1.0595 C.ar    1  LIG1        0.0378
     26 C          -3.6501    7.8798    0.3977 C.ar    1  LIG1        0.1459
     27 O          -2.5705    7.2178   -0.1113 O.2     1  LIG1       -0.4492
     28 O          -0.9799    9.9545    1.4528 O.3     1  LIG1       -0.4910
     29 C          -0.3742    9.5248    2.6750 C.3     1  LIG1        0.0790
     30 H           0.2448   10.3509    3.0167 H       1  LIG1        0.0660
     31 H          -1.1446    9.3001    3.4155 H       1  LIG1        0.0660
     32 H           0.2390    8.6395    2.4971 H       1  LIG1        0.0660
     33 C          -4.0357   10.0235    1.8353 C.3     1  LIG1       -0.0326
     34 H          -4.8968    9.5601    2.3137 H       1  LIG1        0.0280
     35 H          -4.3911   10.8088    1.1694 H       1  LIG1        0.0280
     36 H          -3.3869   10.4667    2.5909 H       1  LIG1        0.0280
     37 C          -6.1241    7.9476   -0.0422 C.ar    1  LIG1        0.1284
     38 C          -7.3278    7.2863   -0.2493 C.ar    1  LIG1       -0.0068
     39 C          -4.9468    7.2242    0.1835 C.ar    1  LIG1        0.0625
     40 C          -7.4015    5.8899   -0.2628 C.ar    1  LIG1        0.0451
     41 H          -8.2430    7.8542   -0.3769 H       1  LIG1        0.0662
     42 C          -5.0178    5.8299    0.1604 C.ar    1  LIG1       -0.0053
     43 C          -6.2171    5.1687   -0.0479 C.ar    1  LIG1        0.1269
     44 H          -4.1127    5.2540    0.3080 H       1  LIG1        0.0662
     45 O          -6.0504    9.3081   -0.0650 O.3     1  LIG1       -0.5060
     46 H          -6.9179    9.6818   -0.2513 H       1  LIG1        0.2922
     47 O          -6.2612    3.7896   -0.0716 O.3     1  LIG1       -0.5061
     48 H          -5.7460    3.4066    0.6481 H       1  LIG1        0.2922
     49 C          -8.7063    5.2350   -0.4411 C.ar    1  LIG1        0.0752
     50 C          -9.9488    5.7749   -0.7641 C.ar    1  LIG1        0.0932
     51 C         -10.8781    4.7176   -0.6954 C.ar    1  LIG1        0.1665
     52 C         -10.1979    3.5531   -0.3498 C.ar    1  LIG1        0.0938
     53 N          -8.8914    3.9043   -0.2184 N.ar    1  LIG1       -0.3496
     54 H          -8.1053    3.2922   -0.0326 H       1  LIG1        0.1661
     55 N         -10.2680    7.1156   -1.1002 N.pl3   1  LIG1       -0.3535
     56 H          -9.8422    7.3697   -1.9890 H       1  LIG1        0.1425
     57 H         -11.2756    7.1931   -1.2104 H       1  LIG1        0.1425
     58 O         -12.2233    4.8759   -0.9034 O.3     1  LIG1       -0.4911
     59 C         -12.9481    5.0860    0.3117 C.3     1  LIG1        0.0790
     60 H         -13.9820    5.2680    0.0274 H       1  LIG1        0.0660
     61 H         -12.8800    4.2008    0.9475 H       1  LIG1        0.0660
     62 H         -12.5410    5.9486    0.8425 H       1  LIG1        0.0660
     63 C         -10.0446    1.1422    0.4408 C.ar    1  LIG1        0.1499
     64 C         -10.7199    2.1944   -0.1902 C.ar    1  LIG1        0.0381
     65 C         -11.9966    1.8798   -0.6855 C.ar    1  LIG1       -0.0448
     66 C         -12.5286    0.6084   -0.5496 C.ar    1  LIG1       -0.0237
     67 C         -11.7254   -0.3726    0.0790 C.ar    1  LIG1        0.0772
     68 N         -10.5236   -0.0946    0.5656 N.ar    1  LIG1       -0.2354
     69 H         -12.5632    2.6614   -1.1784 H       1  LIG1        0.0628
     70 N          -7.6616    1.5054    1.4372 N.1     1  LIG1       -0.1893
     71 C          -8.7148    1.3324    1.0139 C.1     1  LIG1        0.1198
     72 C         -13.9263    0.2856   -1.0332 C.3     1  LIG1       -0.0377
     73 H         -14.4913   -0.1886   -0.2290 H       1  LIG1        0.0278
     74 H         -13.8730   -0.4139   -1.8701 H       1  LIG1        0.0278
     75 H         -14.4316    1.1994   -1.3425 H       1  LIG1        0.0278
     76 C         -12.4883   -2.6032   -0.8264 C.ar    1  LIG1        0.0346
     77 C         -13.0017   -3.8780   -0.5815 C.ar    1  LIG1       -0.0295
     78 C         -12.2197   -1.7714    0.2678 C.ar    1  LIG1        0.0230
     79 C         -13.2150   -4.3530    0.7098 C.ar    1  LIG1        0.0207
     80 H         -13.2718   -4.5105   -1.4187 H       1  LIG1        0.0643
     81 C         -12.3907   -2.2589    1.5626 C.ar    1  LIG1       -0.0295
     82 C         -12.8801   -3.5357    1.8061 C.ar    1  LIG1        0.0345
     83 H         -12.1214   -1.6157    2.3930 H       1  LIG1        0.0643
     84 N         -12.2993   -2.1503   -2.1429 N.pl3   1  LIG1       -0.3574
     85 H         -11.5290   -1.4991   -2.2413 H       1  LIG1        0.1423
     86 H         -12.2306   -2.8986   -2.8196 H       1  LIG1        0.1423
     87 N         -13.0792   -4.0072    3.1344 N.pl3   1  LIG1       -0.3574
     88 H         -12.6037   -4.8937    3.2869 H       1  LIG1        0.1423
     89 H         -12.7595   -3.3332    3.8207 H       1  LIG1        0.1423
     90 C         -13.7875   -5.7025    0.8904 C.ar    1  LIG1        0.0501
     91 C         -13.7391   -6.8096    0.0638 C.ar    1  LIG1       -0.0157
     92 C         -14.5224   -7.8270    0.6731 C.ar    1  LIG1        0.0427
     93 C         -15.0206   -7.3064    1.8479 C.ar    1  LIG1        0.0230
     94 N         -14.5689   -6.0218    1.9611 N.ar    1  LIG1       -0.3590
     95 H         -14.7551   -5.3661    2.7086 H       1  LIG1        0.1654
     96 H         -15.6517   -7.7536    2.5962 H       1  LIG1        0.0826
     97 H         -13.2027   -6.8914   -0.8673 H       1  LIG1        0.0657
     98 N         -14.7647   -9.1087    0.1227 N.pl3   1  LIG1       -0.3568
     99 H         -13.8997   -9.5772   -0.1234 H       1  LIG1        0.1424
    100 H         -15.2884   -9.6993    0.7578 H       1  LIG1        0.1424
@<TRIPOS>BOND
     1    12     9    1
     2    10     9    1
     3     9     8    1
     4     9    11    1
     5     7     2    1
     6    86    84    1
     7     8     3    1
     8     2     3   ar
     9     2     1   ar
    10     3     4   ar
    11    85    84    1
    12    84    76    1
    13    56    55    1
    14     1     6    1
    15     1     5   ar
    16    74    72    1
    17     4     5   ar
    18     4    13    1
    19    20    19    1
    20    80    77    1
    21    75    72    1
    22    57    55    1
    23    69    65    1
    24    55    50    1
    25    13    17   ar
    26    13    14   ar
    27    72    66    1
    28    72    73    1
    29    21    19    1
    30    18    17    1
    31    58    51    1
    32    58    59    1
    33    97    91    1
    34    76    77   ar
    35    76    78   ar
    36    19    14    1
    37    50    51   ar
    38    50    49   ar
    39    17    16   ar
    40    14    15   ar
    41    51    52   ar
    42    65    66   ar
    43    65    64   ar
    44    77    79   ar
    45    66    67   ar
    46    49    40    1
    47    49    53   ar
    48    41    38    1
    49    52    53   ar
    50    52    64    1
    51    40    38   ar
    52    40    43   ar
    53    46    45    1
    54    38    37   ar
    55    16    15   ar
    56    16    23    1
    57    53    54    1
    58    15    22    1
    59    64    63   ar
    60    99    98    1
    61    27    23   ar
    62    27    26   ar
    63    47    43    1
    64    47    48    1
    65    45    37    1
    66    43    42   ar
    67    37    39   ar
    68    60    59    1
    69    91    92   ar
    70    91    90   ar
    71    67    78    1
    72    67    68   ar
    73    98    92    1
    74    98   100    1
    75    42    39   ar
    76    42    44    1
    77    39    26    1
    78    23    24   ar
    79    78    81   ar
    80    59    62    1
    81    59    61    1
    82    26    25   ar
    83    63    68   ar
    84    63    71    1
    85    92    93   ar
    86    79    90    1
    87    79    82   ar
    88    90    94   ar
    89    24    25   ar
    90    24    28    1
    91    71    70    3
    92    25    33    1
    93    35    33    1
    94    28    29    1
    95    81    82   ar
    96    81    83    1
    97    82    87    1
    98    33    34    1
    99    33    36    1
   100    93    94   ar
   101    93    96    1
   102    94    95    1
   103    32    29    1
   104    29    30    1
   105    29    31    1
   106    87    88    1
   107    87    89    1
