@<TRIPOS>MOLECULE
mol_data/opt/m06hf/geoms/mol2/12al12al12al-12al-.out
 46 49 0 0 0
SMALL
GASTEIGER

@<TRIPOS>ATOM
      1 C           0.2824    1.5475    0.0003 C.ar    1  LIG1        0.0964
      2 C           1.6376    1.6355    0.0002 C.ar    1  LIG1        0.0187
      3 C           1.9190    3.0460    0.0001 C.ar    1  LIG1        0.1687
      4 C           0.7124    3.6824    0.0000 C.ar    1  LIG1        0.2111
      5 O          -0.2805    2.7651    0.0002 O.2     1  LIG1       -0.4560
      6 H          -0.3908    0.7084    0.0005 H       1  LIG1        0.1031
      7 H           2.3347    0.8156    0.0003 H       1  LIG1        0.0686
      8 O           3.1048    3.6958    0.0000 O.3     1  LIG1       -0.4912
      9 C           4.2592    2.8722    0.0000 C.3     1  LIG1        0.0790
     10 H           5.1109    3.5470   -0.0001 H       1  LIG1        0.0660
     11 H           4.2807    2.2469    0.8955 H       1  LIG1        0.0660
     12 H           4.2806    2.2467   -0.8953 H       1  LIG1        0.0660
     13 C           0.3891    5.0937   -0.0001 C.ar    1  LIG1        0.1780
     14 C           1.1933    6.1950   -0.0002 C.ar    1  LIG1        0.0300
     15 C           0.2921    7.3141   -0.0003 C.ar    1  LIG1        0.1694
     16 C          -0.9731    6.7983   -0.0003 C.ar    1  LIG1        0.2121
     17 O          -0.9072    5.4420   -0.0002 O.2     1  LIG1       -0.4447
     18 H           2.2693    6.1841   -0.0001 H       1  LIG1        0.0694
     19 O           0.5776    8.6300   -0.0003 O.3     1  LIG1       -0.4912
     20 C           1.9550    8.9584   -0.0003 C.3     1  LIG1        0.0790
     21 H           2.0040   10.0436   -0.0004 H       1  LIG1        0.0660
     22 H           2.4432    8.5643    0.8948 H       1  LIG1        0.0660
     23 H           2.4433    8.5642   -0.8953 H       1  LIG1        0.0660
     24 C          -2.2923    7.3893   -0.0003 C.ar    1  LIG1        0.1780
     25 C          -3.5258    6.8214   -0.0004 C.ar    1  LIG1        0.0300
     26 C          -4.4502    7.9141   -0.0004 C.ar    1  LIG1        0.1694
     27 C          -3.7069    9.0735   -0.0004 C.ar    1  LIG1        0.2121
     28 O          -2.3858    8.7239   -0.0003 O.2     1  LIG1       -0.4447
     29 H          -3.7755    5.7754   -0.0005 H       1  LIG1        0.0694
     30 O          -5.7733    7.6471   -0.0006 O.3     1  LIG1       -0.4912
     31 C          -6.6773    8.7327   -0.0007 C.3     1  LIG1        0.0790
     32 H          -7.6724    8.2957   -0.0017 H       1  LIG1        0.0660
     33 H          -6.5395    9.3367    0.8983 H       1  LIG1        0.0660
     34 H          -6.5381    9.3378   -0.8989 H       1  LIG1        0.0660
     35 C          -3.8948   10.5322   -0.0003 C.ar    1  LIG1        0.1770
     36 C          -4.9395   11.4101    0.0006 C.ar    1  LIG1        0.0292
     37 C          -4.3496   12.7171    0.0000 C.ar    1  LIG1        0.1583
     38 C          -3.0025   12.5430   -0.0012 C.ar    1  LIG1        0.1342
     39 O          -2.7323   11.2156   -0.0014 O.2     1  LIG1       -0.4560
     40 H          -2.1595   13.2082   -0.0020 H       1  LIG1        0.1068
     41 H          -5.9949   11.2222    0.0016 H       1  LIG1        0.0693
     42 O          -5.0861   13.8503    0.0007 O.3     1  LIG1       -0.4919
     43 C          -4.3292   15.0459    0.0002 C.3     1  LIG1        0.0789
     44 H          -5.0436   15.8644    0.0010 H       1  LIG1        0.0660
     45 H          -3.7014   15.0951    0.8942 H       1  LIG1        0.0660
     46 H          -3.7030   15.0955   -0.8949 H       1  LIG1        0.0660
@<TRIPOS>BOND
     1    34    31    1
     2    12     9    1
     3    23    20    1
     4    46    43    1
     5    40    38    1
     6    32    31    1
     7    39    38   ar
     8    39    35   ar
     9    38    37   ar
    10    31    30    1
    11    31    33    1
    12    30    26    1
    13    29    25    1
    14    25    26   ar
    15    25    24   ar
    16    26    27   ar
    17    27    28   ar
    18    27    35    1
    19    21    20    1
    20    19    20    1
    21    19    15    1
    22    24    28   ar
    23    24    16    1
    24    35    36   ar
    25    20    22    1
    26    16    15   ar
    27    16    17   ar
    28    15    14   ar
    29    17    13   ar
    30    14    18    1
    31    14    13   ar
    32    13     4    1
    33    10     9    1
    34     8     9    1
    35     8     3    1
    36    37    36   ar
    37    37    42    1
    38     9    11    1
    39     4     3   ar
    40     4     5   ar
    41     3     2   ar
    42     5     1   ar
    43     2     7    1
    44     2     1   ar
    45    43    42    1
    46    43    44    1
    47    43    45    1
    48     1     6    1
    49    36    41    1
