@<TRIPOS>MOLECULE
mol_data/opt/m06hf/geoms/mol2/12al12al12al-12al.out
 46 49 0 0 0
SMALL
GASTEIGER

@<TRIPOS>ATOM
      1 C           0.3426    1.5727    0.0271 C.ar    1  LIG1        0.0964
      2 C           1.6941    1.7092    0.0121 C.ar    1  LIG1        0.0187
      3 C           1.9239    3.1287   -0.0060 C.ar    1  LIG1        0.1687
      4 C           0.6951    3.7212   -0.0001 C.ar    1  LIG1        0.2111
      5 O          -0.2640    2.7689    0.0201 O.2     1  LIG1       -0.4560
      6 H          -0.2990    0.7096    0.0429 H       1  LIG1        0.1031
      7 H           2.4201    0.9149    0.0134 H       1  LIG1        0.0686
      8 O           3.0845    3.8219   -0.0262 O.3     1  LIG1       -0.4912
      9 C           4.2693    3.0421   -0.0283 C.3     1  LIG1        0.0790
     10 H           5.0948    3.7481   -0.0474 H       1  LIG1        0.0660
     11 H           4.3235    2.4306    0.8751 H       1  LIG1        0.0660
     12 H           4.3041    2.4057   -0.9154 H       1  LIG1        0.0660
     13 C           0.3260    5.1209   -0.0107 C.ar    1  LIG1        0.1780
     14 C           1.0983    6.2453   -0.0213 C.ar    1  LIG1        0.0300
     15 C           0.1657    7.3374   -0.0295 C.ar    1  LIG1        0.1694
     16 C          -1.0842    6.7846   -0.0244 C.ar    1  LIG1        0.2121
     17 O          -0.9800    5.4320   -0.0121 O.2     1  LIG1       -0.4447
     18 H           2.1742    6.2646   -0.0228 H       1  LIG1        0.0694
     19 O           0.4158    8.6638   -0.0371 O.3     1  LIG1       -0.4912
     20 C           1.7863    9.0234   -0.0531 C.3     1  LIG1        0.0790
     21 H           1.8121   10.1095   -0.0638 H       1  LIG1        0.0660
     22 H           2.2909    8.6488    0.8408 H       1  LIG1        0.0660
     23 H           2.2743    8.6320   -0.9491 H       1  LIG1        0.0660
     24 C          -2.4113    7.3560   -0.0262 C.ar    1  LIG1        0.1780
     25 C          -3.6478    6.7975    0.0109 C.ar    1  LIG1        0.0300
     26 C          -4.5706    7.8979   -0.0094 C.ar    1  LIG1        0.1694
     27 C          -3.8180    9.0467   -0.0656 C.ar    1  LIG1        0.2121
     28 O          -2.4979    8.6936   -0.0733 O.2     1  LIG1       -0.4447
     29 H          -3.9026    5.7535    0.0544 H       1  LIG1        0.0694
     30 O          -5.8938    7.6575    0.0361 O.3     1  LIG1       -0.4912
     31 C          -6.7784    8.7604    0.1547 C.3     1  LIG1        0.0790
     32 H          -7.7670    8.3298    0.2906 H       1  LIG1        0.0660
     33 H          -6.5104    9.3714    1.0185 H       1  LIG1        0.0660
     34 H          -6.7485    9.3705   -0.7474 H       1  LIG1        0.0660
     35 C          -3.9679   10.4977   -0.0959 C.ar    1  LIG1        0.1770
     36 C          -2.9853   11.4323    0.0378 C.ar    1  LIG1        0.0292
     37 C          -3.6547   12.7008   -0.0923 C.ar    1  LIG1        0.1583
     38 C          -4.9686   12.4324   -0.2916 C.ar    1  LIG1        0.1342
     39 O          -5.1586   11.0857   -0.2972 O.2     1  LIG1       -0.4560
     40 H          -5.8285   13.0577   -0.4374 H       1  LIG1        0.1068
     41 H          -1.9431   11.2167    0.2004 H       1  LIG1        0.0693
     42 O          -3.1297   13.9483   -0.0301 O.3     1  LIG1       -0.4919
     43 C          -1.7279   14.0104    0.1574 C.3     1  LIG1        0.0789
     44 H          -1.4723   15.0668    0.1705 H       1  LIG1        0.0660
     45 H          -1.4465   13.5499    1.1075 H       1  LIG1        0.0660
     46 H          -1.2073   13.5132   -0.6647 H       1  LIG1        0.0660
@<TRIPOS>BOND
     1    23    20    1
     2    12     9    1
     3    34    31    1
     4    46    43    1
     5    40    38    1
     6    39    38   ar
     7    39    35   ar
     8    38    37   ar
     9    35    27    1
    10    35    36   ar
    11    37    42    1
    12    37    36   ar
    13    28    27   ar
    14    28    24   ar
    15    27    26   ar
    16    21    20    1
    17    20    19    1
    18    20    22    1
    19    10     9    1
    20    19    15    1
    21    42    43    1
    22    15    16   ar
    23    15    14   ar
    24     9     8    1
    25     9    11    1
    26     8     3    1
    27    24    16    1
    28    24    25   ar
    29    16    17   ar
    30    18    14    1
    31    14    13   ar
    32    17    13   ar
    33    13     4    1
    34    26    25   ar
    35    26    30    1
    36     3     4   ar
    37     3     2   ar
    38     4     5   ar
    39    25    29    1
    40     2     7    1
    41     2     1   ar
    42     5     1   ar
    43     1     6    1
    44    30    31    1
    45    36    41    1
    46    31    32    1
    47    31    33    1
    48    43    44    1
    49    43    45    1
