@<TRIPOS>MOLECULE
mol_data/opt/m06hf/geoms/mol2/12al12al12al12al.out
 46 49 0 0 0
SMALL
GASTEIGER

@<TRIPOS>ATOM
      1 C           0.8565    1.3555    0.0003 C.ar    1  LIG1        0.0964
      2 C           2.1978    1.5734   -0.0000 C.ar    1  LIG1        0.0187
      3 C           2.3414    3.0042    0.0000 C.ar    1  LIG1        0.1687
      4 C           1.0788    3.5209    0.0001 C.ar    1  LIG1        0.2111
      5 O           0.1794    2.5125    0.0001 O.2     1  LIG1       -0.4560
      6 H           0.2669    0.4558    0.0005 H       1  LIG1        0.1031
      7 H           2.9698    0.8241   -0.0001 H       1  LIG1        0.0686
      8 O           3.4603    3.7649   -0.0000 O.3     1  LIG1       -0.4912
      9 C           4.6873    3.0544   -0.0003 C.3     1  LIG1        0.0790
     10 H           5.4711    3.8067   -0.0004 H       1  LIG1        0.0660
     11 H           4.7688    2.4341    0.8949 H       1  LIG1        0.0660
     12 H           4.7685    2.4342   -0.8956 H       1  LIG1        0.0660
     13 C           0.6223    4.8944    0.0000 C.ar    1  LIG1        0.1780
     14 C           1.3240    6.0659   -0.0000 C.ar    1  LIG1        0.0300
     15 C           0.3223    7.0906   -0.0001 C.ar    1  LIG1        0.1694
     16 C          -0.8901    6.4609   -0.0001 C.ar    1  LIG1        0.2121
     17 O          -0.7007    5.1205   -0.0000 O.2     1  LIG1       -0.4447
     18 H           2.3962    6.1525    0.0000 H       1  LIG1        0.0694
     19 O           0.4606    8.4359   -0.0001 O.3     1  LIG1       -0.4912
     20 C           1.7954    8.9157   -0.0002 C.3     1  LIG1        0.0790
     21 H           1.7260    9.9999   -0.0002 H       1  LIG1        0.0660
     22 H           2.3217    8.5761    0.8950 H       1  LIG1        0.0660
     23 H           2.3216    8.5760   -0.8954 H       1  LIG1        0.0660
     24 C          -2.2297    7.0033   -0.0001 C.ar    1  LIG1        0.1780
     25 C          -2.6617    8.2992   -0.0001 C.ar    1  LIG1        0.0300
     26 C          -4.0919    8.2067   -0.0002 C.ar    1  LIG1        0.1694
     27 C          -4.4043    6.8775   -0.0002 C.ar    1  LIG1        0.2121
     28 O          -3.2641    6.1471   -0.0002 O.2     1  LIG1       -0.4447
     29 H          -2.0264    9.1675   -0.0001 H       1  LIG1        0.0694
     30 O          -5.0216    9.1905   -0.0002 O.3     1  LIG1       -0.4912
     31 C          -4.5089   10.5118   -0.0003 C.3     1  LIG1        0.0790
     32 H          -5.3718   11.1724   -0.0003 H       1  LIG1        0.0660
     33 H          -3.9069   10.6869    0.8944 H       1  LIG1        0.0660
     34 H          -3.9069   10.6869   -0.8949 H       1  LIG1        0.0660
     35 C          -5.6900    6.2114   -0.0003 C.ar    1  LIG1        0.1770
     36 C          -6.9544    6.7223   -0.0003 C.ar    1  LIG1        0.0292
     37 C          -7.8156    5.5688   -0.0004 C.ar    1  LIG1        0.1583
     38 C          -7.0099    4.4760   -0.0004 C.ar    1  LIG1        0.1342
     39 O          -5.7125    4.8700   -0.0003 O.2     1  LIG1       -0.4560
     40 H          -7.2111    3.4216   -0.0004 H       1  LIG1        0.1068
     41 H          -7.2035    7.7689   -0.0003 H       1  LIG1        0.0693
     42 O          -9.1713    5.5221   -0.0005 O.3     1  LIG1       -0.4919
     43 C          -9.8198    6.7792   -0.0005 C.3     1  LIG1        0.0789
     44 H         -10.8865    6.5710   -0.0006 H       1  LIG1        0.0660
     45 H          -9.5539    7.3491    0.8937 H       1  LIG1        0.0660
     46 H          -9.5538    7.3492   -0.8946 H       1  LIG1        0.0660
@<TRIPOS>BOND
     1    12     9    1
     2    23    20    1
     3    34    31    1
     4    46    43    1
     5    44    43    1
     6    43    42    1
     7    43    45    1
     8    42    37    1
     9    40    38    1
    10    37    38   ar
    11    37    36   ar
    12    38    39   ar
    13    10     9    1
    14    36    41    1
    15    36    35   ar
    16    39    35   ar
    17    35    27    1
    18    32    31    1
    19     9     8    1
    20     9    11    1
    21    31    30    1
    22    31    33    1
    23    27    26   ar
    24    27    28   ar
    25    21    20    1
    26    30    26    1
    27    26    25   ar
    28    20    19    1
    29    20    22    1
    30    28    24   ar
    31     7     2    1
    32    25    24   ar
    33    25    29    1
    34    24    16    1
    35    19    15    1
    36    16    15   ar
    37    16    17   ar
    38    15    14   ar
    39     8     3    1
    40     2     3   ar
    41     2     1   ar
    42    17    13   ar
    43    14    13   ar
    44    14    18    1
    45    13     4    1
    46     3     4   ar
    47     4     5   ar
    48     5     1   ar
    49     1     6    1
