@<TRIPOS>MOLECULE
mol_data/opt/m06hf/geoms/mol2/12al12al-12al-12al-.out
 46 49 0 0 0
SMALL
GASTEIGER

@<TRIPOS>ATOM
      1 C          -1.5853    2.2327    0.5120 C.ar    1  LIG1        0.0964
      2 C          -1.2522    2.4295    1.8120 C.ar    1  LIG1        0.0187
      3 C          -0.1759    3.3884    1.7871 C.ar    1  LIG1        0.1687
      4 C           0.0443    3.6826    0.4726 C.ar    1  LIG1        0.2111
      5 O          -0.8186    2.9783   -0.2988 O.2     1  LIG1       -0.4560
      6 H          -2.3237    1.6121    0.0362 H       1  LIG1        0.1031
      7 H          -1.7047    1.9602    2.6682 H       1  LIG1        0.0686
      8 O           0.5097    3.9256    2.8167 O.3     1  LIG1       -0.4912
      9 C           0.2360    3.3733    4.0924 C.3     1  LIG1        0.0790
     10 H           0.8904    3.8888    4.7896 H       1  LIG1        0.0660
     11 H          -0.8068    3.5455    4.3703 H       1  LIG1        0.0660
     12 H           0.4535    2.3026    4.1003 H       1  LIG1        0.0660
     13 C           0.9835    4.5519   -0.2036 C.ar    1  LIG1        0.1780
     14 C           1.2088    4.7932   -1.5249 C.ar    1  LIG1        0.0300
     15 C           2.2840    5.7418   -1.5566 C.ar    1  LIG1        0.1694
     16 C           2.6121    6.0020   -0.2561 C.ar    1  LIG1        0.2121
     17 O           1.8195    5.2765    0.5652 O.2     1  LIG1       -0.4447
     18 H           0.7026    4.3517   -2.3655 H       1  LIG1        0.0694
     19 O           2.8605    6.2509   -2.6748 O.3     1  LIG1       -0.4912
     20 C           2.4496    7.5839   -2.9885 C.3     1  LIG1        0.0790
     21 H           2.9088    7.8219   -3.9450 H       1  LIG1        0.0660
     22 H           1.3619    7.6285   -3.0713 H       1  LIG1        0.0660
     23 H           2.8020    8.2736   -2.2213 H       1  LIG1        0.0660
     24 C           3.6081    6.8509    0.3613 C.ar    1  LIG1        0.1780
     25 C           3.9672    7.0489    1.6544 C.ar    1  LIG1        0.0300
     26 C           5.0298    8.0151    1.6166 C.ar    1  LIG1        0.1694
     27 C           5.2224    8.3441    0.2977 C.ar    1  LIG1        0.2121
     28 O           4.3459    7.6173   -0.4593 O.2     1  LIG1       -0.4447
     29 H           3.5608    6.5764    2.5312 H       1  LIG1        0.0694
     30 O           5.6329    8.3953    2.7567 O.3     1  LIG1       -0.4912
     31 C           6.8004    9.1982    2.6648 C.3     1  LIG1        0.0790
     32 H           7.2095    9.2390    3.6708 H       1  LIG1        0.0660
     33 H           7.5213    8.7402    1.9836 H       1  LIG1        0.0660
     34 H           6.5468   10.1969    2.3126 H       1  LIG1        0.0660
     35 C           6.0846    9.1873   -0.5238 C.ar    1  LIG1        0.1770
     36 C           6.4100    9.0375   -1.8344 C.ar    1  LIG1        0.0292
     37 C           7.2275   10.1745   -2.1538 C.ar    1  LIG1        0.1583
     38 C           7.3360   10.9162   -1.0194 C.ar    1  LIG1        0.1342
     39 O           6.6264   10.3156   -0.0242 O.2     1  LIG1       -0.4560
     40 H           7.8370   11.8321   -0.7690 H       1  LIG1        0.1068
     41 H           6.1206    8.2335   -2.4892 H       1  LIG1        0.0693
     42 O           7.7552   10.3837   -3.3782 O.3     1  LIG1       -0.4919
     43 C           8.5260   11.5642   -3.4989 C.3     1  LIG1        0.0789
     44 H           8.8767   11.5999   -4.5262 H       1  LIG1        0.0660
     45 H           7.9108   12.4419   -3.2815 H       1  LIG1        0.0660
     46 H           9.3776   11.5308   -2.8135 H       1  LIG1        0.0660
@<TRIPOS>BOND
     1    44    43    1
     2    21    20    1
     3    43    42    1
     4    43    45    1
     5    43    46    1
     6    42    37    1
     7    22    20    1
     8    20    19    1
     9    20    23    1
    10    19    15    1
    11    41    36    1
    12    18    14    1
    13    37    36   ar
    14    37    38   ar
    15    36    35   ar
    16    15    14   ar
    17    15    16   ar
    18    14    13   ar
    19    38    40    1
    20    38    39   ar
    21    35    39   ar
    22    35    27    1
    23    28    27   ar
    24    28    24   ar
    25     5     4   ar
    26     5     1   ar
    27    16    24    1
    28    16    17   ar
    29    13     4    1
    30    13    17   ar
    31     6     1    1
    32    27    26   ar
    33    24    25   ar
    34     4     3   ar
    35     1     2   ar
    36    26    25   ar
    37    26    30    1
    38    25    29    1
    39     3     2   ar
    40     3     8    1
    41     2     7    1
    42    33    31    1
    43    34    31    1
    44    31    30    1
    45    31    32    1
    46     8     9    1
    47     9    12    1
    48     9    11    1
    49     9    10    1
