@<TRIPOS>MOLECULE
mol_data/opt/m06hf/geoms/mol2/12al12al12al.out
 35 37 0 0 0
SMALL
GASTEIGER

@<TRIPOS>ATOM
      1 C           0.3308    1.4623    0.0002 C.ar    1  LIG1        0.0964
      2 C           1.6846    1.5704   -0.0001 C.ar    1  LIG1        0.0187
      3 C           1.9446    2.9852   -0.0000 C.ar    1  LIG1        0.1687
      4 C           0.7282    3.6029   -0.0000 C.ar    1  LIG1        0.2111
      5 O          -0.2502    2.6705   -0.0000 O.2     1  LIG1       -0.4560
      6 H          -0.3288    0.6131    0.0003 H       1  LIG1        0.1031
      7 H           2.3932    0.7604   -0.0001 H       1  LIG1        0.0686
      8 O           3.1232    3.6505   -0.0000 O.3     1  LIG1       -0.4912
      9 C           4.2838    2.8368   -0.0002 C.3     1  LIG1        0.0790
     10 H           5.1317    3.5164   -0.0002 H       1  LIG1        0.0660
     11 H           4.3107    2.2113    0.8949 H       1  LIG1        0.0660
     12 H           4.3105    2.2113   -0.8953 H       1  LIG1        0.0660
     13 C           0.3810    5.0086   -0.0000 C.ar    1  LIG1        0.1780
     14 C           1.1701    6.1225   -0.0000 C.ar    1  LIG1        0.0300
     15 C           0.2492    7.2221   -0.0001 C.ar    1  LIG1        0.1694
     16 C          -1.0068    6.6874   -0.0001 C.ar    1  LIG1        0.2121
     17 O          -0.9208    5.3360   -0.0001 O.2     1  LIG1       -0.4447
     18 H           2.2458    6.1256    0.0000 H       1  LIG1        0.0694
     19 O           0.4915    8.5535   -0.0001 O.3     1  LIG1       -0.4912
     20 C           1.8593    8.9249   -0.0001 C.3     1  LIG1        0.0790
     21 H           1.8783   10.0115   -0.0001 H       1  LIG1        0.0660
     22 H           2.3577    8.5447    0.8949 H       1  LIG1        0.0660
     23 H           2.3577    8.5447   -0.8951 H       1  LIG1        0.0660
     24 C          -2.3084    7.3225   -0.0002 C.ar    1  LIG1        0.1770
     25 C          -2.6591    8.6405   -0.0002 C.ar    1  LIG1        0.0292
     26 C          -4.0986    8.6360   -0.0003 C.ar    1  LIG1        0.1583
     27 C          -4.4886    7.3351   -0.0003 C.ar    1  LIG1        0.1342
     28 O          -3.3945    6.5351   -0.0003 O.2     1  LIG1       -0.4560
     29 H          -5.4536    6.8645   -0.0004 H       1  LIG1        0.1068
     30 H          -1.9739    9.4699   -0.0002 H       1  LIG1        0.0693
     31 O          -4.9531    9.6886   -0.0003 O.3     1  LIG1       -0.4919
     32 C          -4.3467   10.9673   -0.0003 C.3     1  LIG1        0.0789
     33 H          -5.1607   11.6875   -0.0004 H       1  LIG1        0.0660
     34 H          -3.7330   11.1017    0.8938 H       1  LIG1        0.0660
     35 H          -3.7329   11.1016   -0.8944 H       1  LIG1        0.0660
@<TRIPOS>BOND
     1    12     9    1
     2    23    20    1
     3    35    32    1
     4    33    32    1
     5    29    27    1
     6    32    31    1
     7    32    34    1
     8    31    26    1
     9    27    28   ar
    10    27    26   ar
    11    28    24   ar
    12    26    25   ar
    13    10     9    1
    14    25    24   ar
    15    25    30    1
    16    24    16    1
    17     9     8    1
    18     9    11    1
    19    16    17   ar
    20    16    15   ar
    21     7     2    1
    22    17    13   ar
    23    21    20    1
    24    19    15    1
    25    19    20    1
    26    15    14   ar
    27    20    22    1
    28     2     3   ar
    29     2     1   ar
    30    13    14   ar
    31    13     4    1
    32    14    18    1
    33     8     3    1
    34     4     3   ar
    35     4     5   ar
    36     5     1   ar
    37     1     6    1
