@<TRIPOS>MOLECULE
mol_data/opt/m06hf/geoms/mol2/12da4he-4ah4af.out
 47 50 0 0 0
SMALL
GASTEIGER

@<TRIPOS>ATOM
      1 C           0.8617    1.6565   -0.7314 C.ar    1  LIG1        0.1099
      2 C           1.6006    1.6253    0.4084 C.ar    1  LIG1        0.0900
      3 C           1.6808    2.9838    0.8801 C.ar    1  LIG1        0.0016
      4 C           0.9816    3.7265   -0.0216 C.ar    1  LIG1        0.1379
      5 O           0.4903    2.9140   -0.9935 O.2     1  LIG1       -0.4616
      6 H           0.5497    0.8901   -1.4186 H       1  LIG1        0.1043
      7 N           2.6310   -0.4811    1.4905 N.1     1  LIG1       -0.1908
      8 C           2.1726    0.4528    1.0070 C.1     1  LIG1        0.1023
      9 H           2.1489    3.3319    1.7847 H       1  LIG1        0.0668
     10 C           1.4644    6.1417    0.4360 C.ar    1  LIG1        0.0360
     11 C           1.0448    7.4756    0.3778 C.ar    1  LIG1       -0.0315
     12 C           0.6262    5.1510   -0.1076 C.ar    1  LIG1        0.0391
     13 C          -0.1535    7.8477   -0.2196 C.ar    1  LIG1       -0.0007
     14 H           1.6654    8.2430    0.8252 H       1  LIG1        0.0643
     15 C          -0.5644    5.5211   -0.7274 C.ar    1  LIG1       -0.0333
     16 C          -0.9681    6.8531   -0.7955 C.ar    1  LIG1        0.0332
     17 H          -1.1939    4.7574   -1.1640 H       1  LIG1        0.0638
     18 N           2.6615    5.8057    1.0540 N.pl3   1  LIG1       -0.3574
     19 H           3.1259    4.9930    0.6679 H       1  LIG1        0.1423
     20 H           3.2915    6.5810    1.2050 H       1  LIG1        0.1423
     21 C          -2.2009    7.1638   -1.4808 C.1     1  LIG1       -0.0690
     22 C          -3.2301    7.3773   -2.0637 C.1     1  LIG1       -0.1139
     23 H          -4.1364    7.5745   -2.5871 H       1  LIG1        0.1232
     24 C           0.3989   10.2482   -0.6642 C.ar    1  LIG1       -0.0533
     25 C           0.0480   11.5919   -0.6397 C.ar    1  LIG1       -0.0517
     26 C          -0.5272    9.2934   -0.2389 C.ar    1  LIG1       -0.0149
     27 C          -1.2062   12.0126   -0.1981 C.ar    1  LIG1        0.0029
     28 H           0.7601   12.3444   -0.9557 H       1  LIG1        0.0624
     29 C          -1.7858    9.6970    0.1963 C.ar    1  LIG1       -0.0327
     30 C          -2.1437   11.0481    0.2174 C.ar    1  LIG1        0.0329
     31 H          -2.5012    8.9531    0.5258 H       1  LIG1        0.0642
     32 H           1.3709    9.9393   -1.0252 H       1  LIG1        0.0624
     33 N          -3.4050   11.4248    0.6846 N.pl3   1  LIG1       -0.3575
     34 H          -3.7408   12.3057    0.3156 H       1  LIG1        0.1423
     35 H          -4.1001   10.6935    0.6277 H       1  LIG1        0.1423
     36 C          -1.3317   14.2571   -1.3118 C.ar    1  LIG1       -0.0537
     37 C          -1.6018   15.6243   -1.2657 C.ar    1  LIG1       -0.0577
     38 C          -1.5346   13.4705   -0.1774 C.ar    1  LIG1       -0.0127
     39 C          -2.0763   16.2156   -0.1031 C.ar    1  LIG1       -0.0201
     40 H          -1.4452   16.2322   -2.1471 H       1  LIG1        0.0619
     41 C          -2.0167   14.0616    0.9962 C.ar    1  LIG1       -0.0124
     42 C          -2.2838   15.4268    1.0287 C.ar    1  LIG1        0.1174
     43 H          -2.1705   13.4489    1.8785 H       1  LIG1        0.0660
     44 H          -2.2919   17.2736   -0.0438 H       1  LIG1        0.0654
     45 H          -0.9773   13.7956   -2.2241 H       1  LIG1        0.0624
     46 O          -2.7450   16.0504    2.1476 O.3     1  LIG1       -0.5067
     47 H          -2.8484   15.4191    2.8672 H       1  LIG1        0.2921
@<TRIPOS>BOND
     1    23    22    1
     2    45    36    1
     3    40    37    1
     4    22    21    3
     5    21    16    1
     6     6     1    1
     7    36    37   ar
     8    36    38   ar
     9    37    39   ar
    10    17    15    1
    11    32    24    1
    12     5     1   ar
    13     5     4   ar
    14    28    25    1
    15    16    15   ar
    16    16    13   ar
    17     1     2   ar
    18    15    12   ar
    19    24    25   ar
    20    24    26   ar
    21    25    27   ar
    22    26    13    1
    23    26    29   ar
    24    13    11   ar
    25    27    38    1
    26    27    30   ar
    27    38    41   ar
    28    12     4    1
    29    12    10   ar
    30    39    44    1
    31    39    42   ar
    32     4     3   ar
    33    29    30   ar
    34    29    31    1
    35    30    33    1
    36    34    33    1
    37    11    10   ar
    38    11    14    1
    39     2     3   ar
    40     2     8    1
    41    10    18    1
    42    35    33    1
    43    19    18    1
    44     3     9    1
    45    41    42   ar
    46    41    43    1
    47     8     7    3
    48    42    46    1
    49    18    20    1
    50    46    47    1
