@<TRIPOS>MOLECULE
mol_data/opt/m06hf/geoms/mol2/12da12al4lh-4ed.out
 50 53 0 0 0
SMALL
GASTEIGER

@<TRIPOS>ATOM
      1 C           0.3473    1.6115   -0.1789 C.ar    1  LIG1        0.1100
      2 C           1.6971    1.6206   -0.0088 C.ar    1  LIG1        0.0901
      3 C           2.0946    3.0019    0.0435 C.ar    1  LIG1        0.0047
      4 C           0.9436    3.7070   -0.1069 C.ar    1  LIG1        0.1711
      5 O          -0.1080    2.8671   -0.2408 O.2     1  LIG1       -0.4585
      6 H          -0.3712    0.8161   -0.2665 H       1  LIG1        0.1043
      7 N           3.2196   -0.4555    0.1934 N.1     1  LIG1       -0.1908
      8 C           2.5395    0.4638    0.1034 C.1     1  LIG1        0.1023
      9 H           3.0899    3.3857    0.1835 H       1  LIG1        0.0669
     10 C           0.6645    5.1352   -0.1569 C.ar    1  LIG1        0.1742
     11 C           1.4835    6.2183   -0.2376 C.ar    1  LIG1        0.0297
     12 C           0.6054    7.3565   -0.2375 C.ar    1  LIG1        0.1664
     13 C          -0.6776    6.8741   -0.1492 C.ar    1  LIG1        0.1807
     14 O          -0.6167    5.5138   -0.1044 O.2     1  LIG1       -0.4478
     15 H           2.5576    6.2047   -0.3081 H       1  LIG1        0.0693
     16 O           0.9552    8.6530   -0.3308 O.3     1  LIG1       -0.4913
     17 C           2.3409    8.9164   -0.4532 C.3     1  LIG1        0.0790
     18 H           2.4340    9.9966   -0.5166 H       1  LIG1        0.0660
     19 H           2.8818    8.5491    0.4232 H       1  LIG1        0.0660
     20 H           2.7416    8.4565   -1.3602 H       1  LIG1        0.0660
     21 C          -2.3303    8.7455    0.2545 C.ar    1  LIG1        0.1315
     22 C          -3.6442    9.1911    0.2215 C.ar    1  LIG1       -0.0097
     23 C          -2.0364    7.4371   -0.1528 C.ar    1  LIG1        0.0643
     24 C          -4.6873    8.3666   -0.1919 C.ar    1  LIG1        0.0075
     25 H          -3.8421   10.2063    0.5419 H       1  LIG1        0.0661
     26 C          -3.0816    6.6092   -0.5703 C.ar    1  LIG1       -0.0261
     27 C          -4.4041    7.0502   -0.5973 C.ar    1  LIG1        0.0333
     28 H          -2.8518    5.5992   -0.8854 H       1  LIG1        0.0644
     29 O          -1.3615    9.6118    0.6833 O.3     1  LIG1       -0.4944
     30 C          -0.9095    9.3753    2.0122 C.3     1  LIG1        0.0788
     31 H          -0.1389   10.1175    2.2063 H       1  LIG1        0.0660
     32 H          -1.7372    9.4955    2.7152 H       1  LIG1        0.0660
     33 H          -0.4880    8.3723    2.1050 H       1  LIG1        0.0660
     34 N          -5.4301    6.1805   -0.9853 N.pl3   1  LIG1       -0.3575
     35 H          -6.2129    6.6306   -1.4423 H       1  LIG1        0.1423
     36 H          -5.1096    5.3710   -1.4984 H       1  LIG1        0.1423
     37 C          -6.4896   10.0445   -0.8023 C.ar    1  LIG1        0.0325
     38 C          -7.8097   10.5043   -0.7008 C.ar    1  LIG1       -0.0445
     39 C          -6.0941    8.8632   -0.1503 C.ar    1  LIG1        0.0006
     40 C          -8.7468    9.7974    0.0340 C.ar    1  LIG1       -0.0432
     41 H          -8.0848   11.4172   -1.2102 H       1  LIG1        0.0630
     42 C          -7.0467    8.1518    0.5830 C.ar    1  LIG1       -0.0354
     43 C          -8.3566    8.6169    0.6712 C.ar    1  LIG1        0.0524
     44 H          -6.7591    7.2342    1.0803 H       1  LIG1        0.0637
     45 H          -9.7676   10.1438    0.1177 H       1  LIG1        0.0631
     46 C          -5.5552   10.8035   -1.6001 C.1     1  LIG1       -0.0691
     47 C          -4.7975   11.4524   -2.2695 C.1     1  LIG1       -0.1139
     48 H          -4.1115   12.0189   -2.8559 H       1  LIG1        0.1232
     49 N         -10.1038    7.2751    2.0475 N.1     1  LIG1       -0.1909
     50 C          -9.3296    7.8662    1.4414 C.1     1  LIG1        0.0992
@<TRIPOS>BOND
     1    48    47    1
     2    47    46    3
     3    46    37    1
     4    36    34    1
     5    35    34    1
     6    20    17    1
     7    41    38    1
     8    34    27    1
     9    28    26    1
    10    37    38   ar
    11    37    39   ar
    12    38    40   ar
    13    27    26   ar
    14    27    24   ar
    15    26    23   ar
    16    18    17    1
    17    17    16    1
    18    17    19    1
    19    16    12    1
    20    15    11    1
    21     6     1    1
    22     5     1   ar
    23     5     4   ar
    24    11    12   ar
    25    11    10   ar
    26    12    13   ar
    27    24    39    1
    28    24    22   ar
    29     1     2   ar
    30    10     4    1
    31    10    14   ar
    32    23    13    1
    33    23    21   ar
    34    39    42   ar
    35    13    14   ar
    36     4     3   ar
    37     2     3   ar
    38     2     8    1
    39    40    45    1
    40    40    43   ar
    41     3     9    1
    42     8     7    3
    43    22    21   ar
    44    22    25    1
    45    21    29    1
    46    42    43   ar
    47    42    44    1
    48    43    50    1
    49    29    30    1
    50    50    49    3
    51    30    33    1
    52    30    31    1
    53    30    32    1
