@<TRIPOS>MOLECULE
mol_data/opt/m06hf/geoms/mol2/12da12lf-6id4if12fa-6fi-4aa6ff.out
 91 98 0 0 0
SMALL
GASTEIGER

@<TRIPOS>ATOM
      1 C           1.4441    1.4765    0.2119 C.ar    1  LIG1        0.1100
      2 C           2.7445    1.7322   -0.0955 C.ar    1  LIG1        0.0901
      3 C           2.8513    3.1537   -0.2923 C.ar    1  LIG1        0.0048
      4 C           1.5976    3.6289   -0.0805 C.ar    1  LIG1        0.1748
      5 O           0.7485    2.6199    0.2246 O.2     1  LIG1       -0.4584
      6 H           0.9134    0.5671    0.4314 H       1  LIG1        0.1043
      7 N           4.6274   -0.0246   -0.2948 N.1     1  LIG1       -0.1908
      8 C           3.7884    0.7526   -0.2051 C.1     1  LIG1        0.1023
      9 H           3.7237    3.7242   -0.5571 H       1  LIG1        0.0669
     10 C           1.0626    4.9769   -0.1051 C.ar    1  LIG1        0.2157
     11 C           1.7054    6.1758   -0.1659 C.ar    1  LIG1        0.2114
     12 C           0.6659    7.1702   -0.1772 C.ar    1  LIG1        0.2062
     13 C          -0.5166    6.4923   -0.1332 C.ar    1  LIG1        0.1826
     14 O          -0.2733    5.1585   -0.0885 O.2     1  LIG1       -0.4440
     15 O           3.0429    6.3435   -0.2368 O.3     1  LIG1       -0.4883
     16 C           3.5825    7.2660    0.7178 C.3     1  LIG1        0.0791
     17 H           4.6585    7.2476    0.5702 H       1  LIG1        0.0660
     18 H           3.1880    8.2646    0.5355 H       1  LIG1        0.0660
     19 H           3.3334    6.9360    1.7276 H       1  LIG1        0.0660
     20 O           0.8871    8.5099   -0.2217 O.3     1  LIG1       -0.5008
     21 H           0.1472    8.9832    0.1795 H       1  LIG1        0.2924
     22 C          -2.9342    6.3859    0.5932 C.ar    1  LIG1        0.0497
     23 C          -1.8971    6.9869   -0.1532 C.ar    1  LIG1        0.0433
     24 C          -2.2076    8.0883   -0.9420 C.ar    1  LIG1       -0.0298
     25 C          -3.5100    8.5849   -0.9346 C.ar    1  LIG1        0.0784
     26 C          -4.4758    7.9589   -0.1357 C.ar    1  LIG1        0.0890
     27 N          -4.1707    6.8722    0.5764 N.ar    1  LIG1       -0.2499
     28 H          -1.4590    8.5379   -1.5840 H       1  LIG1        0.0639
     29 C          -2.6998    5.1661    1.4572 C.3     1  LIG1       -0.0216
     30 H          -1.8453    5.3306    2.1159 H       1  LIG1        0.0293
     31 H          -2.4796    4.2973    0.8358 H       1  LIG1        0.0293
     32 H          -3.6003    4.9936    2.0405 H       1  LIG1        0.0293
     33 N          -4.0750   10.5632   -2.5122 N.1     1  LIG1       -0.1908
     34 C          -3.8482    9.6888   -1.8048 C.1     1  LIG1        0.1013
     35 C          -6.2741    9.7228    0.2345 C.ar    1  LIG1       -0.0403
     36 C          -7.6389   10.0162    0.2465 C.ar    1  LIG1       -0.0439
     37 C          -5.8973    8.4141   -0.0845 C.ar    1  LIG1        0.0080
     38 C          -8.6172    9.0679   -0.0501 C.ar    1  LIG1        0.0626
     39 H          -7.9609   11.0181    0.5030 H       1  LIG1        0.0629
     40 C          -6.8634    7.4401   -0.3496 C.ar    1  LIG1       -0.0100
     41 C          -8.2114    7.7549   -0.3503 C.ar    1  LIG1        0.1283
     42 H          -6.5414    6.4265   -0.5609 H       1  LIG1        0.0661
     43 C          -5.2968   10.8181    0.6280 C.3     1  LIG1       -0.0391
     44 H          -5.7110   11.3801    1.4652 H       1  LIG1        0.0278
     45 H          -5.1319   11.5003   -0.2070 H       1  LIG1        0.0278
     46 H          -4.3369   10.4041    0.9364 H       1  LIG1        0.0278
     47 O          -9.1581    6.8160   -0.6479 O.3     1  LIG1       -0.5060
     48 H          -8.7451    5.9731   -0.8627 H       1  LIG1        0.2922
     49 C         -10.0269    9.4569   -0.0480 C.ar    1  LIG1        0.1803
     50 C         -10.6668   10.6604   -0.1268 C.ar    1  LIG1        0.1633
     51 C         -12.0775   10.4004   -0.1227 C.ar    1  LIG1        0.0266
     52 C         -12.1982    9.0449   -0.0313 C.ar    1  LIG1        0.1444
     53 O         -10.9757    8.4903    0.0327 O.2     1  LIG1       -0.4508
     54 O         -10.0419   11.8653   -0.1882 O.3     1  LIG1       -0.5032
     55 H         -10.6253   12.5258   -0.5749 H       1  LIG1        0.2923
     56 H         -12.8728   11.1225   -0.2053 H       1  LIG1        0.0692
     57 C         -13.1855    6.7361   -0.3017 C.ar    1  LIG1        0.2238
     58 C         -13.3315    8.1169   -0.0146 C.ar    1  LIG1        0.0789
     59 C         -14.6107    8.5685    0.2835 C.ar    1  LIG1       -0.0410
     60 C         -15.7175    7.7241    0.2604 C.ar    1  LIG1       -0.0236
     61 C         -15.4582    6.3891   -0.0828 C.ar    1  LIG1        0.0777
     62 N         -14.2300    5.9307   -0.3282 N.ar    1  LIG1       -0.2122
     63 H         -14.7441    9.6073    0.5662 H       1  LIG1        0.0630
     64 O         -12.0169    6.1435   -0.5671 O.3     1  LIG1       -0.4919
     65 H         -11.2507    6.7333   -0.4799 H       1  LIG1        0.2938
     66 C         -17.0814    8.2601    0.6585 C.3     1  LIG1       -0.0377
     67 H         -17.6772    7.4847    1.1388 H       1  LIG1        0.0278
     68 H         -17.6302    8.6348   -0.2080 H       1  LIG1        0.0278
     69 H         -16.9522    9.0858    1.3587 H       1  LIG1        0.0278
     70 C         -17.7765    5.5830   -0.7250 C.ar    1  LIG1       -0.0520
     71 C         -18.7278    4.5702   -0.7947 C.ar    1  LIG1       -0.0532
     72 C         -16.5252    5.3413   -0.1552 C.ar    1  LIG1        0.0008
     73 C         -18.4462    3.2991   -0.2897 C.ar    1  LIG1       -0.0127
     74 H         -19.6867    4.7552   -1.2621 H       1  LIG1        0.0624
     75 C         -16.2317    4.0622    0.3241 C.ar    1  LIG1       -0.0520
     76 C         -17.1852    3.0539    0.2701 C.ar    1  LIG1       -0.0532
     77 H         -15.2489    3.8761    0.7362 H       1  LIG1        0.0624
     78 H         -17.9989    6.5522   -1.1516 H       1  LIG1        0.0624
     79 H         -16.9631    2.0740    0.6767 H       1  LIG1        0.0624
     80 C         -19.1738    0.9573   -0.9037 C.ar    1  LIG1        0.2204
     81 C         -19.4734    2.2189   -0.3425 C.ar    1  LIG1        0.0470
     82 C         -20.7540    2.4143    0.1500 C.ar    1  LIG1       -0.0059
     83 C         -21.6758    1.3710    0.0978 C.ar    1  LIG1        0.1357
     84 C         -21.2639    0.1647   -0.4501 C.ar    1  LIG1        0.0728
     85 N         -20.0421   -0.0291   -0.9445 N.ar    1  LIG1       -0.2173
     86 H         -21.0401    3.3574    0.5982 H       1  LIG1        0.0662
     87 H         -21.9446   -0.6803   -0.4989 H       1  LIG1        0.0868
     88 O         -17.9601    0.6914   -1.4394 O.3     1  LIG1       -0.4920
     89 H         -17.4523    1.5079   -1.5266 H       1  LIG1        0.2937
     90 O         -22.9264    1.5850    0.5971 O.3     1  LIG1       -0.5052
     91 H         -23.4620    0.7881    0.5207 H       1  LIG1        0.2922
@<TRIPOS>BOND
     1    33    34    3
     2    34    25    1
     3    28    24    1
     4    89    88    1
     5    88    80    1
     6    74    71    1
     7    78    70    1
     8    85    80   ar
     9    85    84   ar
    10    24    25   ar
    11    24    23   ar
    12    25    26   ar
    13    80    81   ar
    14    48    47    1
    15    71    70   ar
    16    71    73   ar
    17    70    72   ar
    18    47    41    1
    19    55    54    1
    20    64    65    1
    21    64    57    1
    22    42    40    1
    23     9     3    1
    24    87    84    1
    25    84    83   ar
    26    41    40   ar
    27    41    38   ar
    28    40    37   ar
    29    81    73    1
    30    81    82   ar
    31    62    57   ar
    32    62    61   ar
    33    57    58   ar
    34     7     8    3
    35     3     2   ar
    36     3     4   ar
    37    73    76   ar
    38    15    11    1
    39    15    16    1
    40    20    12    1
    41    20    21    1
    42    68    66    1
    43    45    43    1
    44    56    51    1
    45     8     2    1
    46    54    50    1
    47    12    11   ar
    48    12    13   ar
    49    11    10   ar
    50    72    61    1
    51    72    75   ar
    52    23    13    1
    53    23    22   ar
    54    26    37    1
    55    26    27   ar
    56    13    14   ar
    57    50    51   ar
    58    50    49   ar
    59    51    52   ar
    60    10    14   ar
    61    10     4    1
    62     2     1   ar
    63    37    35   ar
    64    61    60   ar
    65     4     5   ar
    66    38    49    1
    67    38    36   ar
    68    49    53   ar
    69    52    58    1
    70    52    53   ar
    71    58    59   ar
    72    83    82   ar
    73    83    90    1
    74    82    86    1
    75     1     5   ar
    76     1     6    1
    77    35    36   ar
    78    35    43    1
    79    36    39    1
    80    60    59   ar
    81    60    66    1
    82    76    75   ar
    83    76    79    1
    84    59    63    1
    85    75    77    1
    86    91    90    1
    87    18    16    1
    88    17    16    1
    89    27    22   ar
    90    22    29    1
    91    43    46    1
    92    43    44    1
    93    66    67    1
    94    66    69    1
    95    16    19    1
    96    31    29    1
    97    29    32    1
    98    29    30    1
