@<TRIPOS>MOLECULE
mol_data/opt/m06hf/geoms/mol2/12dd12dd-4dd12dd.out
 41 44 0 0 0
SMALL
GASTEIGER

@<TRIPOS>ATOM
      1 C           0.0958    1.6829   -0.1001 C.ar    1  LIG1        0.1114
      2 C           1.3690    1.6986   -0.5750 C.ar    1  LIG1        0.1075
      3 C           1.7776    3.0811   -0.5747 C.ar    1  LIG1        0.1178
      4 C           0.7037    3.7710   -0.0952 C.ar    1  LIG1        0.1896
      5 O          -0.3015    2.9299    0.1877 O.2     1  LIG1       -0.4571
      6 H          -0.6055    0.8864    0.0768 H       1  LIG1        0.1043
      7 N           2.7539   -0.3420   -1.3301 N.1     1  LIG1       -0.1907
      8 C           2.1415    0.5665   -0.9941 C.1     1  LIG1        0.1036
      9 N           4.0201    4.0675   -1.3795 N.1     1  LIG1       -0.1907
     10 C           3.0277    3.6246   -1.0143 C.1     1  LIG1        0.1044
     11 C           0.4875    5.1834    0.1373 C.ar    1  LIG1        0.1905
     12 C          -0.6104    5.9100    0.4985 C.ar    1  LIG1        0.1185
     13 C          -0.1606    7.2758    0.5578 C.ar    1  LIG1        0.1155
     14 C           1.1655    7.2582    0.2281 C.ar    1  LIG1        0.1557
     15 O           1.5389    5.9943   -0.0290 O.2     1  LIG1       -0.4490
     16 N          -2.9896    5.0414    0.9756 N.1     1  LIG1       -0.1907
     17 C          -1.9296    5.4224    0.7637 C.1     1  LIG1        0.1044
     18 N          -1.5465    9.3654    1.1603 N.1     1  LIG1       -0.1907
     19 C          -0.9377    8.4276    0.9050 C.1     1  LIG1        0.1043
     20 C           3.5220    8.0727    0.4680 C.ar    1  LIG1        0.0632
     21 C           4.4792    9.0735    0.3336 C.ar    1  LIG1       -0.0317
     22 C           2.1828    8.3137    0.1210 C.ar    1  LIG1        0.0372
     23 C           4.1147   10.3392   -0.1255 C.ar    1  LIG1        0.0372
     24 H           5.5068    8.8560    0.5926 H       1  LIG1        0.0638
     25 C           1.8154    9.5785   -0.3312 C.ar    1  LIG1       -0.0317
     26 C           2.7703   10.5863   -0.4446 C.ar    1  LIG1        0.0632
     27 H           0.7897    9.7920   -0.6009 H       1  LIG1        0.0638
     28 N           4.2874    5.8011    1.4622 N.1     1  LIG1       -0.1908
     29 C           3.9425    6.7952    1.0075 C.1     1  LIG1        0.0999
     30 N           1.9096   12.9080   -1.2208 N.1     1  LIG1       -0.1908
     31 C           2.3148   11.8905   -0.8831 C.1     1  LIG1        0.0999
     32 C           5.1449   11.3805   -0.2572 C.ar    1  LIG1        0.1547
     33 C           6.3074   11.6167    0.4194 C.ar    1  LIG1        0.1147
     34 C           6.8844   12.7916   -0.1820 C.ar    1  LIG1        0.1074
     35 C           6.0240   13.1637   -1.1653 C.ar    1  LIG1        0.1112
     36 O           4.9900   12.3156   -1.2083 O.2     1  LIG1       -0.4602
     37 H           6.0330   13.9738   -1.8734 H       1  LIG1        0.1043
     38 N           7.2437   10.2368    2.3874 N.1     1  LIG1       -0.1907
     39 C           6.8323   10.8621    1.5180 C.1     1  LIG1        0.1043
     40 N           9.0971   13.9470    0.4682 N.1     1  LIG1       -0.1907
     41 C           8.1123   13.4358    0.1806 C.1     1  LIG1        0.1036
@<TRIPOS>BOND
     1    37    35    1
     2     9    10    3
     3     7     8    3
     4    30    31    3
     5    36    35   ar
     6    36    32   ar
     7    35    34   ar
     8    10     3    1
     9     8     2    1
    10    31    26    1
    11    27    25    1
    12     2     3   ar
    13     2     1   ar
    14     3     4   ar
    15    26    25   ar
    16    26    23   ar
    17    25    22   ar
    18    32    23    1
    19    32    33   ar
    20    34    41    1
    21    34    33   ar
    22    23    21   ar
    23     1     6    1
    24     1     5   ar
    25     4    11    1
    26     4     5   ar
    27    15    11   ar
    28    15    14   ar
    29    22    14    1
    30    22    20   ar
    31    11    12   ar
    32    41    40    3
    33    14    13   ar
    34    21    20   ar
    35    21    24    1
    36    33    39    1
    37    20    29    1
    38    12    13   ar
    39    12    17    1
    40    13    19    1
    41    17    16    3
    42    19    18    3
    43    29    28    3
    44    39    38    3
