@<TRIPOS>MOLECULE
mol_data/opt/m06hf/geoms/mol2/12dd12dd12dd-12dd-.out
 38 41 0 0 0
SMALL
GASTEIGER

@<TRIPOS>ATOM
      1 C           0.1977    1.7951    0.0003 C.ar    1  LIG1        0.1114
      2 C           1.5550    1.7309   -0.0000 C.ar    1  LIG1        0.1075
      3 C           2.0210    3.0951   -0.0002 C.ar    1  LIG1        0.1178
      4 C           0.8924    3.8640    0.0000 C.ar    1  LIG1        0.1896
      5 O          -0.1947    3.0720    0.0003 O.2     1  LIG1       -0.4571
      6 H          -0.5680    1.0385    0.0005 H       1  LIG1        0.1043
      7 N           3.0044   -0.4022   -0.0003 N.1     1  LIG1       -0.1907
      8 C           2.3622    0.5469   -0.0002 C.1     1  LIG1        0.1036
      9 N           4.5172    3.7321   -0.0010 N.1     1  LIG1       -0.1907
     10 C           3.3979    3.4854   -0.0006 C.1     1  LIG1        0.1044
     11 C           0.5988    5.2907    0.0000 C.ar    1  LIG1        0.1906
     12 C           1.3243    6.4512    0.0001 C.ar    1  LIG1        0.1186
     13 C           0.3576    7.5190    0.0001 C.ar    1  LIG1        0.1186
     14 C          -0.8629    6.9119   -0.0000 C.ar    1  LIG1        0.1906
     15 O          -0.7144    5.5832   -0.0000 O.2     1  LIG1       -0.4459
     16 N           3.8643    6.8803    0.0004 N.1     1  LIG1       -0.1907
     17 C           2.7416    6.6503    0.0002 C.1     1  LIG1        0.1044
     18 N           0.8255   10.0541    0.0001 N.1     1  LIG1       -0.1907
     19 C           0.6225    8.9262    0.0001 C.1     1  LIG1        0.1044
     20 C          -2.2126    7.4301   -0.0001 C.ar    1  LIG1        0.1906
     21 C          -3.4331    6.8230   -0.0001 C.ar    1  LIG1        0.1186
     22 C          -4.3998    7.8908   -0.0002 C.ar    1  LIG1        0.1186
     23 C          -3.6743    9.0512   -0.0002 C.ar    1  LIG1        0.1906
     24 O          -2.3612    8.7587   -0.0001 O.2     1  LIG1       -0.4459
     25 N          -3.9010    4.2879   -0.0001 N.1     1  LIG1       -0.1907
     26 C          -3.6981    5.4158   -0.0001 C.1     1  LIG1        0.1044
     27 N          -6.9399    7.4616   -0.0003 N.1     1  LIG1       -0.1907
     28 C          -5.8172    7.6917   -0.0003 C.1     1  LIG1        0.1044
     29 C          -3.9679   10.4780   -0.0002 C.ar    1  LIG1        0.1896
     30 C          -5.0966   11.2469   -0.0004 C.ar    1  LIG1        0.1178
     31 C          -4.6305   12.6111   -0.0003 C.ar    1  LIG1        0.1075
     32 C          -3.2732   12.5469   -0.0002 C.ar    1  LIG1        0.1114
     33 O          -2.8808   11.2700   -0.0001 O.2     1  LIG1       -0.4571
     34 H          -2.5076   13.3034   -0.0001 H       1  LIG1        0.1043
     35 N          -7.5927   10.6099   -0.0007 N.1     1  LIG1       -0.1907
     36 C          -6.4734   10.8566   -0.0005 C.1     1  LIG1        0.1044
     37 N          -6.0799   14.7442   -0.0005 N.1     1  LIG1       -0.1907
     38 C          -5.4377   13.7951   -0.0004 C.1     1  LIG1        0.1036
@<TRIPOS>BOND
     1     9    10    3
     2    35    36    3
     3    10     3    1
     4    36    30    1
     5    37    38    3
     6    38    31    1
     7    30    31   ar
     8    30    29   ar
     9    31    32   ar
    10     7     8    3
    11    27    28    3
    12    28    22    1
    13    29    23    1
    14    29    33   ar
    15    22    23   ar
    16    22    21   ar
    17     8     2    1
    18    32    33   ar
    19    32    34    1
    20     3     2   ar
    21     3     4   ar
    22    23    24   ar
    23    21    26    1
    24    21    20   ar
    25    24    20   ar
    26    26    25    3
    27    20    14    1
    28     2     1   ar
    29    14    15   ar
    30    14    13   ar
    31    15    11   ar
    32     4    11    1
    33     4     5   ar
    34    11    12   ar
    35    13    19    1
    36    13    12   ar
    37    19    18    3
    38    12    17    1
    39    17    16    3
    40     1     5   ar
    41     1     6    1
