@<TRIPOS>MOLECULE
mol_data/opt/m06hf/geoms/mol2/12dd12dd-12dd.out
 29 31 0 0 0
SMALL
GASTEIGER

@<TRIPOS>ATOM
      1 C           0.1947    1.7936    0.3460 C.ar    1  LIG1        0.1114
      2 C           1.5025    1.7551   -0.0218 C.ar    1  LIG1        0.1075
      3 C           1.9047    3.1265   -0.2088 C.ar    1  LIG1        0.1178
      4 C           0.7941    3.8664    0.0705 C.ar    1  LIG1        0.1896
      5 O          -0.2281    3.0634    0.4024 O.2     1  LIG1       -0.4571
      6 H          -0.5161    1.0230    0.5877 H       1  LIG1        0.1043
      7 N           2.9482   -0.3579   -0.3330 N.1     1  LIG1       -0.1907
      8 C           2.3091    0.5831   -0.1949 C.1     1  LIG1        0.1036
      9 N           4.1917    3.9897   -1.0274 N.1     1  LIG1       -0.1907
     10 C           3.1786    3.6091   -0.6497 C.1     1  LIG1        0.1044
     11 C           0.5421    5.2925    0.0449 C.ar    1  LIG1        0.1906
     12 C          -0.6115    6.0216    0.0291 C.ar    1  LIG1        0.1186
     13 C          -0.1999    7.3995   -0.0294 C.ar    1  LIG1        0.1186
     14 C           1.1645    7.3766   -0.0452 C.ar    1  LIG1        0.1906
     15 O           1.6047    6.1101   -0.0001 O.2     1  LIG1       -0.4459
     16 N          -3.0324    5.1352    0.0584 N.1     1  LIG1       -0.1907
     17 C          -1.9541    5.5240    0.0476 C.1     1  LIG1        0.1044
     18 N          -1.7383    9.4684   -0.0591 N.1     1  LIG1       -0.1907
     19 C          -1.0497    8.5520   -0.0480 C.1     1  LIG1        0.1044
     20 C           2.1573    8.4309   -0.0707 C.ar    1  LIG1        0.1896
     21 C           3.4918    8.4406    0.2089 C.ar    1  LIG1        0.1178
     22 C           3.9077    9.8079    0.0216 C.ar    1  LIG1        0.1075
     23 C           2.7929   10.4930   -0.3460 C.ar    1  LIG1        0.1114
     24 O           1.7430    9.6630   -0.4025 O.2     1  LIG1       -0.4571
     25 H           2.6212   11.5272   -0.5875 H       1  LIG1        0.1043
     26 N           4.9308    6.4647    1.0278 N.1     1  LIG1       -0.1907
     27 C           4.2924    7.3384    0.6498 C.1     1  LIG1        0.1044
     28 N           6.2755   10.7818    0.3325 N.1     1  LIG1       -0.1907
     29 C           5.2249   10.3455    0.1945 C.1     1  LIG1        0.1036
@<TRIPOS>BOND
     1     9    10    3
     2    10     3    1
     3    25    23    1
     4    24    23   ar
     5    24    20   ar
     6    23    22   ar
     7     7     8    3
     8     3     2   ar
     9     3     4   ar
    10     8     2    1
    11    20    14    1
    12    20    21   ar
    13    18    19    3
    14    19    13    1
    15    14    13   ar
    16    14    15   ar
    17    13    12   ar
    18     2     1   ar
    19    15    11   ar
    20    22    29    1
    21    22    21   ar
    22    12    11   ar
    23    12    17    1
    24    11     4    1
    25    17    16    3
    26     4     5   ar
    27    29    28    3
    28    21    27    1
    29     1     5   ar
    30     1     6    1
    31    27    26    3
