@<TRIPOS>MOLECULE
mol_data/opt/m06hf/geoms/mol2/12dd12dd.out
 20 21 0 0 0
SMALL
GASTEIGER

@<TRIPOS>ATOM
      1 C           0.1439    1.8264    0.0001 C.ar    1  LIG1        0.1114
      2 C           1.4992    1.7786    0.0000 C.ar    1  LIG1        0.1075
      3 C           1.9495    3.1497   -0.0001 C.ar    1  LIG1        0.1178
      4 C           0.8124    3.9074   -0.0000 C.ar    1  LIG1        0.1896
      5 O          -0.2647    3.0995    0.0001 O.2     1  LIG1       -0.4571
      6 H          -0.6126    1.0616    0.0002 H       1  LIG1        0.1043
      7 N           2.9594   -0.3473    0.0000 N.1     1  LIG1       -0.1907
      8 C           2.3158    0.6009    0.0000 C.1     1  LIG1        0.1036
      9 N           4.4433    3.7957   -0.0004 N.1     1  LIG1       -0.1907
     10 C           3.3242    3.5480   -0.0003 C.1     1  LIG1        0.1044
     11 C           0.5039    5.3335   -0.0001 C.ar    1  LIG1        0.1896
     12 C           1.2260    6.4934    0.0000 C.ar    1  LIG1        0.1178
     13 C           0.2491    7.5558   -0.0002 C.ar    1  LIG1        0.1075
     14 C          -0.9651    6.9519   -0.0004 C.ar    1  LIG1        0.1114
     15 O          -0.8109    5.6237   -0.0003 O.2     1  LIG1       -0.4571
     16 H          -1.9702    7.3356   -0.0005 H       1  LIG1        0.1043
     17 N           3.7637    6.9362    0.0006 N.1     1  LIG1       -0.1907
     18 C           2.6423    6.6991    0.0003 C.1     1  LIG1        0.1044
     19 N           0.6999   10.0951   -0.0001 N.1     1  LIG1       -0.1907
     20 C           0.5058    8.9657   -0.0001 C.1     1  LIG1        0.1036
@<TRIPOS>BOND
     1    16    14    1
     2     9    10    3
     3    14    15   ar
     4    14    13   ar
     5    15    11   ar
     6    10     3    1
     7    13    20    1
     8    13    12   ar
     9    20    19    3
    10    11     4    1
    11    11    12   ar
    12     3     4   ar
    13     3     2   ar
    14     4     5   ar
    15    12    18    1
    16     8     2    1
    17     8     7    3
    18     2     1   ar
    19     5     1   ar
    20     1     6    1
    21    18    17    3
