@<TRIPOS>MOLECULE
mol_data/opt/m06hf/geoms/mol2/12dd12dd-12dd-12dd-.out
 38 41 0 0 0
SMALL
GASTEIGER

@<TRIPOS>ATOM
      1 C           0.0264    1.7537   -0.0580 C.ar    1  LIG1        0.1114
      2 C           1.3635    1.7293    0.1846 C.ar    1  LIG1        0.1075
      3 C           1.7918    3.1053    0.1940 C.ar    1  LIG1        0.1178
      4 C           0.6627    3.8333   -0.0432 C.ar    1  LIG1        0.1896
      5 O          -0.3912    3.0203   -0.1930 O.2     1  LIG1       -0.4571
      6 H          -0.7104    0.9753   -0.1553 H       1  LIG1        0.1043
      7 N           2.8371   -0.3553    0.5522 N.1     1  LIG1       -0.1907
      8 C           2.1816    0.5703    0.3880 C.1     1  LIG1        0.1036
      9 N           4.1792    4.0190    0.5427 N.1     1  LIG1       -0.1907
     10 C           3.1189    3.6092    0.3917 C.1     1  LIG1        0.1044
     11 C           0.4486    5.2604   -0.1605 C.ar    1  LIG1        0.1906
     12 C          -0.6354    6.0210   -0.4918 C.ar    1  LIG1        0.1186
     13 C          -0.1764    7.3862   -0.4568 C.ar    1  LIG1        0.1186
     14 C           1.1391    7.3259   -0.0946 C.ar    1  LIG1        0.1906
     15 O           1.5055    6.0447    0.0794 O.2     1  LIG1       -0.4459
     16 N          -2.9984    5.1898   -1.0976 N.1     1  LIG1       -0.1907
     17 C          -1.9474    5.5587   -0.8283 C.1     1  LIG1        0.1044
     18 N          -1.5439    9.4689   -1.1180 N.1     1  LIG1       -0.1907
     19 C          -0.9350    8.5472   -0.8114 C.1     1  LIG1        0.1044
     20 C           2.1817    8.3148    0.1211 C.ar    1  LIG1        0.1906
     21 C           2.1815    9.6190    0.5244 C.ar    1  LIG1        0.1186
     22 C           3.5666   10.0086    0.5747 C.ar    1  LIG1        0.1186
     23 C           4.2766    8.9051    0.1987 C.ar    1  LIG1        0.1906
     24 O           3.4404    7.8931   -0.0751 O.2     1  LIG1       -0.4459
     25 N           0.1644   11.0348    1.2782 N.1     1  LIG1       -0.1907
     26 C           1.0576   10.4079    0.9273 C.1     1  LIG1        0.1044
     27 N           4.5137   12.2553    1.4118 N.1     1  LIG1       -0.1907
     28 C           4.0919   11.2609    1.0278 C.1     1  LIG1        0.1044
     29 C           5.7002    8.6357    0.0718 C.ar    1  LIG1        0.1896
     30 C           6.7568    9.4004   -0.3240 C.ar    1  LIG1        0.1178
     31 C           7.9083    8.5393   -0.2251 C.ar    1  LIG1        0.1075
     32 C           7.4413    7.3383    0.2090 C.ar    1  LIG1        0.1114
     33 O           6.1176    7.3997    0.3883 O.2     1  LIG1       -0.4571
     34 H           7.9263    6.4012    0.4208 H       1  LIG1        0.1043
     35 N           6.6753   11.8179   -1.2171 N.1     1  LIG1       -0.1907
     36 C           6.7139   10.7471   -0.8092 C.1     1  LIG1        0.1044
     37 N          10.3560    9.1239   -0.7919 N.1     1  LIG1       -0.1907
     38 C           9.2675    8.8687   -0.5392 C.1     1  LIG1        0.1036
@<TRIPOS>BOND
     1    35    36    3
     2    18    19    3
     3    16    17    3
     4    17    12    1
     5    19    13    1
     6    36    30    1
     7    37    38    3
     8    38    31    1
     9    12    13   ar
    10    12    11   ar
    11    13    14   ar
    12    30    31   ar
    13    30    29   ar
    14    31    32   ar
    15     5     1   ar
    16     5     4   ar
    17    11     4    1
    18    11    15   ar
    19     6     1    1
    20    14    15   ar
    21    14    20    1
    22    24    20   ar
    23    24    23   ar
    24     1     2   ar
    25     4     3   ar
    26    29    23    1
    27    29    33   ar
    28    20    21   ar
    29     2     3   ar
    30     2     8    1
    31     3    10    1
    32    23    22   ar
    33    32    33   ar
    34    32    34    1
    35     8     7    3
    36    10     9    3
    37    21    22   ar
    38    21    26    1
    39    22    28    1
    40    26    25    3
    41    28    27    3
