@<TRIPOS>MOLECULE
mol_data/opt/m06hf/geoms/mol2/12dd.out
 11 11 0 0 0
SMALL
GASTEIGER

@<TRIPOS>ATOM
      1 C           0.1383    1.8871   -0.0001 C.ar    1  LIG1        0.1103
      2 C           1.4944    1.8657    0.0001 C.ar    1  LIG1        0.1067
      3 C           1.9080    3.2504   -0.0001 C.ar    1  LIG1        0.1067
      4 C           0.7623    3.9763   -0.0000 C.ar    1  LIG1        0.1103
      5 O          -0.2983    3.1553   -0.0001 O.2     1  LIG1       -0.4684
      6 H          -0.6001    1.1051   -0.0001 H       1  LIG1        0.1043
      7 H           0.5737    5.0351   -0.0000 H       1  LIG1        0.1043
      8 N           3.0113   -0.2215    0.0002 N.1     1  LIG1       -0.1907
      9 C           2.3366    0.7055    0.0002 C.1     1  LIG1        0.1036
     10 N           4.3211    4.1639   -0.0001 N.1     1  LIG1       -0.1907
     11 C           3.2485    3.7588   -0.0001 C.1     1  LIG1        0.1036
@<TRIPOS>BOND
     1     5     1   ar
     2     5     4   ar
     3     6     1    1
     4     1     2   ar
     5    11     3    1
     6    11    10    3
     7     3     4   ar
     8     3     2   ar
     9     7     4    1
    10     2     9    1
    11     9     8    3
