@<TRIPOS>MOLECULE
mol_data/opt/m06hf/geoms/mol2/12dd12dd12dd12dd.out
 38 41 0 0 0
SMALL
GASTEIGER

@<TRIPOS>ATOM
      1 C           1.0028    2.0368    1.7380 C.ar    1  LIG1        0.1114
      2 C           1.9894    1.8750    0.8181 C.ar    1  LIG1        0.1075
      3 C           2.0207    3.0959    0.0529 C.ar    1  LIG1        0.1178
      4 C           1.0523    3.8874    0.5936 C.ar    1  LIG1        0.1896
      5 O           0.4414    3.2452    1.6035 O.2     1  LIG1       -0.4571
      6 H           0.6199    1.3942    2.5117 H       1  LIG1        0.1043
      7 N           3.4691   -0.2114    0.4880 N.1     1  LIG1       -0.1907
      8 C           2.8138    0.7171    0.6348 C.1     1  LIG1        0.1036
      9 N           3.4708    3.6303   -2.0102 N.1     1  LIG1       -0.1907
     10 C           2.8364    3.3930   -1.0855 C.1     1  LIG1        0.1044
     11 C           0.6040    5.2323    0.2674 C.ar    1  LIG1        0.1906
     12 C           1.2799    6.3462   -0.1381 C.ar    1  LIG1        0.1186
     13 C           0.2777    7.3595   -0.3379 C.ar    1  LIG1        0.1186
     14 C          -0.9093    6.7724   -0.0103 C.ar    1  LIG1        0.1906
     15 O          -0.7107    5.4936    0.3487 O.2     1  LIG1       -0.4459
     16 N           3.8333    6.6014   -0.3861 N.1     1  LIG1       -0.1907
     17 C           2.6970    6.4893   -0.2845 C.1     1  LIG1        0.1044
     18 N           0.6309    9.7465   -1.2438 N.1     1  LIG1       -0.1907
     19 C           0.4776    8.6880   -0.8317 C.1     1  LIG1        0.1044
     20 C          -2.2751    7.2726    0.0112 C.ar    1  LIG1        0.1906
     21 C          -2.8021    8.4876    0.3383 C.ar    1  LIG1        0.1186
     22 C          -4.2218    8.3612    0.1384 C.ar    1  LIG1        0.1186
     23 C          -4.4251    7.0741   -0.2666 C.ar    1  LIG1        0.1906
     24 O          -3.2526    6.4244   -0.3475 O.2     1  LIG1       -0.4459
     25 N          -1.5301   10.5384    1.2435 N.1     1  LIG1       -0.1907
     26 C          -2.0967    9.6311    0.8317 C.1     1  LIG1        0.1044
     27 N          -6.0058   10.2059    0.3852 N.1     1  LIG1       -0.1907
     28 C          -5.2109    9.3860    0.2841 C.1     1  LIG1        0.1044
     29 C          -5.6358    6.3367   -0.5931 C.ar    1  LIG1        0.1896
     30 C          -6.8870    6.3588   -0.0539 C.ar    1  LIG1        0.1178
     31 C          -7.6508    5.4055   -0.8187 C.ar    1  LIG1        0.1075
     32 C          -6.7919    4.8903   -1.7368 C.ar    1  LIG1        0.1114
     33 O          -5.5830    5.4503   -1.6015 O.2     1  LIG1       -0.4571
     34 H          -6.9138    4.1513   -2.5096 H       1  LIG1        0.1043
     35 N          -7.6516    7.7060    2.0064 N.1     1  LIG1       -0.1907
     36 C          -7.3193    7.1139    1.0829 C.1     1  LIG1        0.1044
     37 N         -10.1287    4.7694   -0.4914 N.1     1  LIG1       -0.1907
     38 C          -9.0284    5.0545   -0.6369 C.1     1  LIG1        0.1036
@<TRIPOS>BOND
     1    34    32    1
     2     9    10    3
     3    32    33   ar
     4    32    31   ar
     5    33    29   ar
     6    18    19    3
     7    10     3    1
     8    19    13    1
     9    31    38    1
    10    31    30   ar
    11    38    37    3
    12    29    23    1
    13    29    30   ar
    14    16    17    3
    15    24    23   ar
    16    24    20   ar
    17    13    12   ar
    18    13    14   ar
    19    17    12    1
    20    23    22   ar
    21    12    11   ar
    22    30    36    1
    23    14    20    1
    24    14    15   ar
    25    20    21   ar
    26     3     4   ar
    27     3     2   ar
    28    22    28    1
    29    22    21   ar
    30    11    15   ar
    31    11     4    1
    32    28    27    3
    33    21    26    1
    34     7     8    3
    35     4     5   ar
    36     8     2    1
    37     2     1   ar
    38    26    25    3
    39    36    35    3
    40     5     1   ar
    41     1     6    1
