@<TRIPOS>MOLECULE
mol_data/opt/m06hf/geoms/mol2/12dd12dd12dd.out
 29 31 0 0 0
SMALL
GASTEIGER

@<TRIPOS>ATOM
      1 C           0.5408    1.8172    1.0336 C.ar    1  LIG1        0.1114
      2 C           1.6946    1.7852    0.3164 C.ar    1  LIG1        0.1075
      3 C           1.8845    3.1223   -0.1864 C.ar    1  LIG1        0.1178
      4 C           0.8280    3.8418    0.2866 C.ar    1  LIG1        0.1896
      5 O           0.0219    3.0514    1.0158 O.2     1  LIG1       -0.4571
      6 H           0.0053    1.0605    1.5798 H       1  LIG1        0.1043
      7 N           3.2000   -0.2692   -0.0918 N.1     1  LIG1       -0.1907
      8 C           2.5342    0.6457    0.0904 C.1     1  LIG1        0.1036
      9 N           3.7375    3.9580   -1.7720 N.1     1  LIG1       -0.1907
     10 C           2.9209    3.5858   -1.0588 C.1     1  LIG1        0.1044
     11 C           0.4606    5.2413    0.1382 C.ar    1  LIG1        0.1906
     12 C           1.2090    6.3808    0.1006 C.ar    1  LIG1        0.1186
     13 C           0.2728    7.4551   -0.0994 C.ar    1  LIG1        0.1186
     14 C          -0.9582    6.8693   -0.1386 C.ar    1  LIG1        0.1906
     15 O          -0.8418    5.5384   -0.0007 O.2     1  LIG1       -0.4459
     16 N           3.7567    6.5599    0.4464 N.1     1  LIG1       -0.1907
     17 C           2.6250    6.4849    0.2814 C.1     1  LIG1        0.1044
     18 N           0.7989    9.9546   -0.4434 N.1     1  LIG1       -0.1907
     19 C           0.5696    8.8437   -0.2792 C.1     1  LIG1        0.1044
     20 C          -2.2943    7.4245   -0.2874 C.ar    1  LIG1        0.1896
     21 C          -2.8627    8.5693    0.1860 C.ar    1  LIG1        0.1178
     22 C          -4.2130    8.5644   -0.3175 C.ar    1  LIG1        0.1075
     23 C          -4.3388    7.4175   -1.0354 C.ar    1  LIG1        0.1114
     24 O          -3.1871    6.7346   -1.0175 O.2     1  LIG1       -0.4571
     25 H          -5.1614    6.9908   -1.5822 H       1  LIG1        0.1043
     26 N          -1.7826   10.2895    1.7735 N.1     1  LIG1       -0.1907
     27 C          -2.2624    9.5319    1.0595 C.1     1  LIG1        0.1044
     28 N          -6.0426   10.3360    0.0907 N.1     1  LIG1       -0.1907
     29 C          -5.2272    9.5517   -0.0915 C.1     1  LIG1        0.1036
@<TRIPOS>BOND
     1     9    10    3
     2    25    23    1
     3    10     3    1
     4    23    24   ar
     5    23    22   ar
     6    24    20   ar
     7    18    19    3
     8    22    29    1
     9    22    21   ar
    10    20    14    1
    11    20    21   ar
    12    19    13    1
    13     3     4   ar
    14     3     2   ar
    15    14    13   ar
    16    14    15   ar
    17    13    12   ar
    18     7     8    3
    19    29    28    3
    20    15    11   ar
    21     8     2    1
    22    12    11   ar
    23    12    17    1
    24    11     4    1
    25    21    27    1
    26    17    16    3
    27     4     5   ar
    28     2     1   ar
    29     5     1   ar
    30     1     6    1
    31    27    26    3
