@<TRIPOS>MOLECULE
mol_data/opt/m06hf/geoms/mol2/12dd12dd-12dd12dd-.out
 38 41 0 0 0
SMALL
GASTEIGER

@<TRIPOS>ATOM
      1 C           0.2037    1.7487   -0.0669 C.ar    1  LIG1        0.1114
      2 C           1.4899    1.7902   -0.5058 C.ar    1  LIG1        0.1075
      3 C           1.8704    3.1800   -0.4946 C.ar    1  LIG1        0.1178
      4 C           0.7698    3.8480   -0.0449 C.ar    1  LIG1        0.1896
      5 O          -0.2258    2.9872    0.2110 O.2     1  LIG1       -0.4571
      6 H          -0.4864    0.9376    0.0881 H       1  LIG1        0.1043
      7 N           2.9380   -0.2186   -1.2269 N.1     1  LIG1       -0.1907
      8 C           2.2965    0.6750   -0.9058 C.1     1  LIG1        0.1036
      9 N           4.1060    4.2239   -1.2426 N.1     1  LIG1       -0.1907
     10 C           3.1178    3.7536   -0.9015 C.1     1  LIG1        0.1044
     11 C           0.5194    5.2561    0.1792 C.ar    1  LIG1        0.1906
     12 C          -0.6205    5.9666    0.4290 C.ar    1  LIG1        0.1186
     13 C          -0.2060    7.3401    0.5395 C.ar    1  LIG1        0.1186
     14 C           1.1449    7.3322    0.3438 C.ar    1  LIG1        0.1906
     15 O           1.5751    6.0800    0.1288 O.2     1  LIG1       -0.4459
     16 N          -3.0157    5.0414    0.6635 N.1     1  LIG1       -0.1907
     17 C          -1.9502    5.4508    0.5569 C.1     1  LIG1        0.1044
     18 N          -1.6683    9.3861    1.1056 N.1     1  LIG1       -0.1907
     19 C          -1.0234    8.4758    0.8430 C.1     1  LIG1        0.1044
     20 C           2.1368    8.3866    0.3571 C.ar    1  LIG1        0.1906
     21 C           3.4824    8.3786    0.5872 C.ar    1  LIG1        0.1186
     22 C           3.8994    9.7523    0.4889 C.ar    1  LIG1        0.1186
     23 C           2.7660   10.4630    0.2112 C.ar    1  LIG1        0.1906
     24 O           1.7122    9.6390    0.1328 O.2     1  LIG1       -0.4459
     25 N           4.9302    6.3322    1.1877 N.1     1  LIG1       -0.1907
     26 C           4.2920    7.2427    0.9099 C.1     1  LIG1        0.1044
     27 N           6.2877   10.6773    0.7856 N.1     1  LIG1       -0.1907
     28 C           5.2254   10.2680    0.6512 C.1     1  LIG1        0.1044
     29 C           2.5212   11.8713   -0.0175 C.ar    1  LIG1        0.1896
     30 C           1.4327   12.5397   -0.4951 C.ar    1  LIG1        0.1178
     31 C           1.8129   13.9296   -0.4946 C.ar    1  LIG1        0.1075
     32 C           3.0872   13.9708   -0.0221 C.ar    1  LIG1        0.1114
     33 O           3.5095   12.7321    0.2655 O.2     1  LIG1       -0.4571
     34 H           3.7727   14.7819    0.1520 H       1  LIG1        0.1043
     35 N          -0.7822   11.4958   -1.3026 N.1     1  LIG1       -0.1907
     36 C           0.1966   11.9662   -0.9352 C.1     1  LIG1        0.1044
     37 N           0.3840   15.9390   -1.2512 N.1     1  LIG1       -0.1907
     38 C           1.0170   15.0451   -0.9144 C.1     1  LIG1        0.1036
@<TRIPOS>BOND
     1    35    36    3
     2    37    38    3
     3     9    10    3
     4     7     8    3
     5    36    30    1
     6    38    31    1
     7     8     2    1
     8    10     3    1
     9     2     3   ar
    10     2     1   ar
    11    30    31   ar
    12    30    29   ar
    13    31    32   ar
    14     3     4   ar
    15     1     6    1
    16     1     5   ar
    17     4    11    1
    18     4     5   ar
    19    32    34    1
    20    32    33   ar
    21    29    23    1
    22    29    33   ar
    23    15    11   ar
    24    15    14   ar
    25    24    23   ar
    26    24    20   ar
    27    11    12   ar
    28    23    22   ar
    29    14    20    1
    30    14    13   ar
    31    20    21   ar
    32    12    13   ar
    33    12    17    1
    34    22    21   ar
    35    22    28    1
    36    13    19    1
    37    17    16    3
    38    21    26    1
    39    28    27    3
    40    19    18    3
    41    26    25    3
