@<TRIPOS>MOLECULE
mol_data/opt/m06hf/geoms/mol2/12dd12dd-12dd-12dd.out
 38 41 0 0 0
SMALL
GASTEIGER

@<TRIPOS>ATOM
      1 C           0.1935    1.7476    0.0599 C.ar    1  LIG1        0.1114
      2 C           1.4451    1.7864   -0.4687 C.ar    1  LIG1        0.1075
      3 C           1.8095    3.1791   -0.5282 C.ar    1  LIG1        0.1178
      4 C           0.7338    3.8510   -0.0259 C.ar    1  LIG1        0.1896
      5 O          -0.2315    2.9906    0.3257 O.2     1  LIG1       -0.4571
      6 H          -0.4734    0.9352    0.2900 H       1  LIG1        0.1043
      7 N           2.8661   -0.2277   -1.2279 N.1     1  LIG1       -0.1907
      8 C           2.2362    0.6673   -0.8882 C.1     1  LIG1        0.1036
      9 N           3.9953    4.2138   -1.4250 N.1     1  LIG1       -0.1907
     10 C           3.0281    3.7477   -1.0231 C.1     1  LIG1        0.1044
     11 C           0.4975    5.2673    0.1620 C.ar    1  LIG1        0.1906
     12 C          -0.5872    6.0000    0.5528 C.ar    1  LIG1        0.1186
     13 C          -0.1561    7.3746    0.5247 C.ar    1  LIG1        0.1186
     14 C           1.1437    7.3460    0.1098 C.ar    1  LIG1        0.1906
     15 O           1.5280    6.0772   -0.1025 O.2     1  LIG1       -0.4459
     16 N          -2.9106    5.1112    1.2265 N.1     1  LIG1       -0.1907
     17 C          -1.8773    5.5057    0.9261 C.1     1  LIG1        0.1044
     18 N          -1.5095    9.4421    1.2576 N.1     1  LIG1       -0.1907
     19 C          -0.9125    8.5230    0.9218 C.1     1  LIG1        0.1044
     20 C           2.1670    8.3528   -0.1101 C.ar    1  LIG1        0.1906
     21 C           2.1598    9.6528   -0.5251 C.ar    1  LIG1        0.1186
     22 C           3.5411   10.0614   -0.5531 C.ar    1  LIG1        0.1186
     23 C           4.2561    8.9649   -0.1623 C.ar    1  LIG1        0.1906
     24 O           3.4294    7.9477    0.1022 O.2     1  LIG1       -0.4459
     25 N           0.1146   11.0398   -1.2581 N.1     1  LIG1       -0.1907
     26 C           1.0238   10.4279   -0.9223 C.1     1  LIG1        0.1044
     27 N           4.4679   12.3699   -1.2269 N.1     1  LIG1       -0.1907
     28 C           4.0565   11.3433   -0.9264 C.1     1  LIG1        0.1044
     29 C           5.6683    8.7054    0.0258 C.ar    1  LIG1        0.1896
     30 C           6.3225    7.6189    0.5282 C.ar    1  LIG1        0.1178
     31 C           7.7209    7.9605    0.4688 C.ar    1  LIG1        0.1075
     32 C           7.7803    9.2113   -0.0599 C.ar    1  LIG1        0.1114
     33 O           6.5443    9.6566   -0.3258 O.2     1  LIG1       -0.4571
     34 H           8.6034    9.8649   -0.2899 H       1  LIG1        0.1043
     35 N           5.2521    5.4503    1.4248 N.1     1  LIG1       -0.1907
     36 C           5.7340    6.4098    1.0230 C.1     1  LIG1        0.1044
     37 N           9.7115    6.5068    1.2280 N.1     1  LIG1       -0.1907
     38 C           8.8269    7.1512    0.8883 C.1     1  LIG1        0.1036
@<TRIPOS>BOND
     1     9    10    3
     2    25    26    3
     3     7     8    3
     4    27    28    3
     5    10     3    1
     6    28    22    1
     7    26    21    1
     8     8     2    1
     9    22    21   ar
    10    22    23   ar
    11     3     2   ar
    12     3     4   ar
    13    21    20   ar
    14     2     1   ar
    15    33    32   ar
    16    33    29   ar
    17    34    32    1
    18    23    29    1
    19    23    24   ar
    20    20    24   ar
    21    20    14    1
    22    15    14   ar
    23    15    11   ar
    24    32    31   ar
    25     4    11    1
    26     4     5   ar
    27    29    30   ar
    28     1     6    1
    29     1     5   ar
    30    14    13   ar
    31    11    12   ar
    32    31    30   ar
    33    31    38    1
    34    13    12   ar
    35    13    19    1
    36    30    36    1
    37    12    17    1
    38    38    37    3
    39    19    18    3
    40    17    16    3
    41    36    35    3
