@<TRIPOS>MOLECULE
mol_data/opt/m06hf/geoms/mol2/12dd12dd-.out
 20 21 0 0 0
SMALL
GASTEIGER

@<TRIPOS>ATOM
      1 C           0.1740    1.8268    0.0000 C.ar    1  LIG1        0.1114
      2 C           1.5323    1.8020    0.0000 C.ar    1  LIG1        0.1075
      3 C           1.9566    3.1805   -0.0000 C.ar    1  LIG1        0.1178
      4 C           0.8050    3.9114   -0.0001 C.ar    1  LIG1        0.1896
      5 O          -0.2588    3.0955   -0.0000 O.2     1  LIG1       -0.4571
      6 H          -0.5691    1.0486    0.0000 H       1  LIG1        0.1043
      7 N           3.0408   -0.2900    0.0001 N.1     1  LIG1       -0.1907
      8 C           2.3711    0.6400    0.0001 C.1     1  LIG1        0.1036
      9 N           4.3767    4.0682   -0.0001 N.1     1  LIG1       -0.1907
     10 C           3.2998    3.6757   -0.0001 C.1     1  LIG1        0.1044
     11 C           0.5532    5.3386   -0.0001 C.ar    1  LIG1        0.1896
     12 C          -0.5984    6.0695   -0.0001 C.ar    1  LIG1        0.1178
     13 C          -0.1741    7.4479   -0.0001 C.ar    1  LIG1        0.1075
     14 C           1.1843    7.4231   -0.0001 C.ar    1  LIG1        0.1114
     15 O           1.6170    6.1545   -0.0001 O.2     1  LIG1       -0.4571
     16 H           1.9273    8.2014   -0.0002 H       1  LIG1        0.1043
     17 N          -3.0184    5.1817   -0.0001 N.1     1  LIG1       -0.1907
     18 C          -1.9415    5.5743   -0.0001 C.1     1  LIG1        0.1044
     19 N          -1.6826    9.5400   -0.0002 N.1     1  LIG1       -0.1907
     20 C          -1.0128    8.6100   -0.0002 C.1     1  LIG1        0.1036
@<TRIPOS>BOND
     1    19    20    3
     2    20    13    1
     3    16    14    1
     4    13    14   ar
     5    13    12   ar
     6    14    15   ar
     7    15    11   ar
     8    12    11   ar
     9    12    18    1
    10    11     4    1
    11    18    17    3
    12     9    10    3
    13    10     3    1
    14     4     5   ar
    15     4     3   ar
    16     5     1   ar
    17     3     2   ar
    18     1     2   ar
    19     1     6    1
    20     2     8    1
    21     8     7    3
