@<TRIPOS>MOLECULE
mol_data/opt/m06hf/geoms/mol2/12dd12dd12dd-12dd.out
 38 41 0 0 0
SMALL
GASTEIGER

@<TRIPOS>ATOM
      1 C           0.0330    1.8285    0.0009 C.ar    1  LIG1        0.1114
      2 C           1.3836    1.6803    0.0003 C.ar    1  LIG1        0.1075
      3 C           1.9335    3.0133   -0.0001 C.ar    1  LIG1        0.1178
      4 C           0.8540    3.8504    0.0002 C.ar    1  LIG1        0.1896
      5 O          -0.2796    3.1268    0.0008 O.2     1  LIG1       -0.4571
      6 H          -0.7784    1.1214    0.0013 H       1  LIG1        0.1043
      7 N           2.6930   -0.5417    0.0001 N.1     1  LIG1       -0.1907
      8 C           2.1144    0.4475    0.0002 C.1     1  LIG1        0.1036
      9 N           4.4638    3.4975   -0.0015 N.1     1  LIG1       -0.1907
     10 C           3.3318    3.3184   -0.0008 C.1     1  LIG1        0.1044
     11 C           0.6472    5.2924    0.0000 C.ar    1  LIG1        0.1906
     12 C           1.4385    6.4081   -0.0001 C.ar    1  LIG1        0.1186
     13 C           0.5372    7.5332   -0.0003 C.ar    1  LIG1        0.1186
     14 C          -0.7183    7.0009   -0.0002 C.ar    1  LIG1        0.1906
     15 O          -0.6441    5.6630    0.0000 O.2     1  LIG1       -0.4459
     16 N           4.0003    6.6734   -0.0001 N.1     1  LIG1       -0.1907
     17 C           2.8647    6.5201   -0.0001 C.1     1  LIG1        0.1044
     18 N           1.3085    9.9906   -0.0007 N.1     1  LIG1       -0.1907
     19 C           0.9305    8.9085   -0.0005 C.1     1  LIG1        0.1044
     20 C          -2.0599    7.5443   -0.0003 C.ar    1  LIG1        0.1906
     21 C          -3.2678    6.9059   -0.0004 C.ar    1  LIG1        0.1186
     22 C          -4.2572    7.9476   -0.0005 C.ar    1  LIG1        0.1186
     23 C          -3.5581    9.1217   -0.0004 C.ar    1  LIG1        0.1906
     24 O          -2.2378    8.8751   -0.0003 O.2     1  LIG1       -0.4459
     25 N          -3.6964    4.3637   -0.0005 N.1     1  LIG1       -0.1907
     26 C          -3.5052    5.4937   -0.0004 C.1     1  LIG1        0.1044
     27 N          -6.8141    7.6246   -0.0007 N.1     1  LIG1       -0.1907
     28 C          -5.6781    7.7756   -0.0006 C.1     1  LIG1        0.1044
     29 C          -4.0136   10.4965   -0.0004 C.ar    1  LIG1        0.1896
     30 C          -3.3754   11.7020    0.0000 C.ar    1  LIG1        0.1178
     31 C          -4.4274   12.6881   -0.0002 C.ar    1  LIG1        0.1075
     32 C          -5.5956   11.9942   -0.0007 C.ar    1  LIG1        0.1114
     33 O          -5.3438   10.6791   -0.0008 O.2     1  LIG1       -0.4571
     34 H          -6.6267   12.3018   -0.0010 H       1  LIG1        0.1043
     35 N          -0.8543   12.2303    0.0012 N.1     1  LIG1       -0.1907
     36 C          -1.9693   11.9650    0.0006 C.1     1  LIG1        0.1044
     37 N          -4.1602   15.2531    0.0004 N.1     1  LIG1       -0.1907
     38 C          -4.2755   14.1131    0.0002 C.1     1  LIG1        0.1036
@<TRIPOS>BOND
     1     9    10    3
     2    34    32    1
     3    10     3    1
     4    33    32   ar
     5    33    29   ar
     6    27    28    3
     7    18    19    3
     8    32    31   ar
     9    28    22    1
    10    19    13    1
    11    25    26    3
    12    22    21   ar
    13    22    23   ar
    14    26    21    1
    15    21    20   ar
    16    23    29    1
    17    23    24   ar
    18    29    30   ar
    19    13    14   ar
    20    13    12   ar
    21    20    24   ar
    22    20    14    1
    23    14    15   ar
    24    31    30   ar
    25    31    38    1
    26    12    17    1
    27    12    11   ar
    28    17    16    3
    29     3     4   ar
    30     3     2   ar
    31    15    11   ar
    32    30    36    1
    33    11     4    1
    34     7     8    3
    35    38    37    3
    36     4     5   ar
    37     8     2    1
    38     2     1   ar
    39    36    35    3
    40     5     1   ar
    41     1     6    1
