@<TRIPOS>MOLECULE
mol_data/opt/m06hf/geoms/mol2/12dd12dd12dd12dd-.out
 38 41 0 0 0
SMALL
GASTEIGER

@<TRIPOS>ATOM
      1 C           0.4704    1.7068    0.1635 C.ar    1  LIG1        0.1114
      2 C           1.7492    1.7982   -0.2897 C.ar    1  LIG1        0.1075
      3 C           2.0348    3.2073   -0.3898 C.ar    1  LIG1        0.1178
      4 C           0.8984    3.8354    0.0248 C.ar    1  LIG1        0.1896
      5 O          -0.0364    2.9296    0.3533 O.2     1  LIG1       -0.4571
      6 H          -0.1667    0.8677    0.3829 H       1  LIG1        0.1043
      7 N           3.3144   -0.1639   -0.8849 N.1     1  LIG1       -0.1907
      8 C           2.6226    0.7106   -0.6197 C.1     1  LIG1        0.1036
      9 N           4.1722    4.3154   -1.3130 N.1     1  LIG1       -0.1907
     10 C           3.2267    3.8223   -0.8918 C.1     1  LIG1        0.1044
     11 C           0.5361    5.2375    0.1603 C.ar    1  LIG1        0.1906
     12 C           1.2365    6.3500    0.5278 C.ar    1  LIG1        0.1186
     13 C           0.2920    7.4361    0.4944 C.ar    1  LIG1        0.1186
     14 C          -0.8934    6.8797    0.1082 C.ar    1  LIG1        0.1906
     15 O          -0.7400    5.5619   -0.0931 O.2     1  LIG1       -0.4459
     16 N           3.6851    6.4516    1.3273 N.1     1  LIG1       -0.1907
     17 C           2.6000    6.4089    0.9600 C.1     1  LIG1        0.1044
     18 N           0.7220    9.8633    1.2461 N.1     1  LIG1       -0.1907
     19 C           0.5314    8.7886    0.8963 C.1     1  LIG1        0.1044
     20 C          -2.2359    7.4005   -0.0858 C.ar    1  LIG1        0.1906
     21 C          -2.7489    8.6164   -0.4375 C.ar    1  LIG1        0.1186
     22 C          -4.1797    8.4484   -0.4505 C.ar    1  LIG1        0.1186
     23 C          -4.3992    7.1427   -0.1186 C.ar    1  LIG1        0.1906
     24 O          -3.2351    6.5215    0.1019 O.2     1  LIG1       -0.4459
     25 N          -1.4595   10.7434   -1.1145 N.1     1  LIG1       -0.1907
     26 C          -2.0285    9.7988   -0.8009 C.1     1  LIG1        0.1044
     27 N          -5.9498   10.2314   -1.0246 N.1     1  LIG1       -0.1907
     28 C          -5.1632    9.4380   -0.7694 C.1     1  LIG1        0.1044
     29 C          -5.5962    6.3393    0.0156 C.ar    1  LIG1        0.1896
     30 C          -5.7687    5.0069    0.2529 C.ar    1  LIG1        0.1178
     31 C          -7.1958    4.8066    0.2649 C.ar    1  LIG1        0.1075
     32 C          -7.7484    6.0265    0.0332 C.ar    1  LIG1        0.1114
     33 O          -6.7836    6.9453   -0.1148 O.2     1  LIG1       -0.4571
     34 H          -8.7683    6.3606   -0.0478 H       1  LIG1        0.1043
     35 N          -3.9184    3.2373    0.5701 N.1     1  LIG1       -0.1907
     36 C          -4.7436    4.0217    0.4331 C.1     1  LIG1        0.1044
     37 N          -8.4455    2.5830    0.6473 N.1     1  LIG1       -0.1907
     38 C          -7.8912    3.5714    0.4766 C.1     1  LIG1        0.1036
@<TRIPOS>BOND
     1     9    10    3
     2    25    26    3
     3    27    28    3
     4    10     3    1
     5     7     8    3
     6    26    21    1
     7    28    22    1
     8     8     2    1
     9    22    21   ar
    10    22    23   ar
    11    21    20   ar
    12     3     2   ar
    13     3     4   ar
    14     2     1   ar
    15    23    29    1
    16    23    24   ar
    17    33    29   ar
    18    33    32   ar
    19    15    14   ar
    20    15    11   ar
    21    20    24   ar
    22    20    14    1
    23    34    32    1
    24    29    30   ar
    25     4    11    1
    26     4     5   ar
    27    32    31   ar
    28    14    13   ar
    29    11    12   ar
    30     1     5   ar
    31     1     6    1
    32    30    31   ar
    33    30    36    1
    34    31    38    1
    35    36    35    3
    36    38    37    3
    37    13    12   ar
    38    13    19    1
    39    12    17    1
    40    19    18    3
    41    17    16    3
