@<TRIPOS>MOLECULE
mol_data/opt/m06hf/geoms/mol2/12de6hh4dl-4ed.out
 53 56 0 0 0
SMALL
GASTEIGER

@<TRIPOS>ATOM
      1 C           1.6158    8.1491   -8.4668 C.ar    1  LIG1        0.1112
      2 C           2.6611    7.3901   -8.0598 C.ar    1  LIG1        0.1054
      3 C           2.6051    7.3564   -6.6143 C.ar    1  LIG1        0.0878
      4 C           1.5216    8.1143   -6.2700 C.ar    1  LIG1        0.1547
      5 O           0.9326    8.5877   -7.3976 O.2     1  LIG1       -0.4602
      6 H           1.2612    8.4423   -9.4389 H       1  LIG1        0.1043
      7 N           4.3962    6.2220   -9.5710 N.1     1  LIG1       -0.1907
      8 C           3.6246    6.7404   -8.8996 C.1     1  LIG1        0.1036
      9 C           3.4899    6.6401   -5.7508 C.1     1  LIG1       -0.0646
     10 C           4.2366    6.0272   -5.0377 C.1     1  LIG1       -0.1138
     11 H           4.8881    5.4677   -4.4061 H       1  LIG1        0.1232
     12 C          -0.4300    8.6749   -4.7657 C.ar    1  LIG1        0.1277
     13 C           0.9587    8.4843   -4.9678 C.ar    1  LIG1        0.0597
     14 C           1.8106    8.6356   -3.8830 C.ar    1  LIG1       -0.0249
     15 C           1.3089    8.9236   -2.6123 C.ar    1  LIG1        0.0517
     16 C          -0.0840    9.0264   -2.5098 C.ar    1  LIG1        0.0950
     17 N          -0.9033    8.9470   -3.5573 N.ar    1  LIG1       -0.2298
     18 H           2.8787    8.5252   -4.0286 H       1  LIG1        0.0645
     19 N          -1.3562    8.5312   -5.7735 N.pl3   1  LIG1       -0.3426
     20 H          -2.2910    8.7970   -5.5033 H       1  LIG1        0.1437
     21 H          -1.0767    8.7469   -6.7161 H       1  LIG1        0.1437
     22 N           2.1490    9.0814   -1.5120 N.pl3   1  LIG1       -0.3563
     23 H           3.1164    9.2605   -1.7381 H       1  LIG1        0.1424
     24 H           1.7971    9.6891   -0.7845 H       1  LIG1        0.1424
     25 C          -0.5462    8.5009   -0.0733 C.ar    1  LIG1        0.0618
     26 C          -1.1709    8.8192    1.1359 C.ar    1  LIG1       -0.0325
     27 C          -0.7349    9.3154   -1.1946 C.ar    1  LIG1        0.0230
     28 C          -1.9810    9.9392    1.2508 C.ar    1  LIG1        0.0262
     29 H          -1.0230    8.1749    1.9922 H       1  LIG1        0.0638
     30 C          -1.5718   10.4249   -1.0955 C.ar    1  LIG1       -0.0089
     31 C          -2.1933   10.7415    0.1117 C.ar    1  LIG1        0.1285
     32 H          -1.7268   11.0209   -1.9832 H       1  LIG1        0.0661
     33 N           0.8291    6.3009   -0.1437 N.1     1  LIG1       -0.1908
     34 C           0.2352    7.2829   -0.1403 C.1     1  LIG1        0.0998
     35 O          -3.0046   11.8072    0.2686 O.3     1  LIG1       -0.4945
     36 C          -3.2110   12.6781   -0.8328 C.3     1  LIG1        0.0788
     37 H          -3.8713   13.4584   -0.4662 H       1  LIG1        0.0660
     38 H          -2.2632   13.1131   -1.1569 H       1  LIG1        0.0660
     39 H          -3.6849   12.1459   -1.6601 H       1  LIG1        0.0660
     40 C          -1.8798   10.3428    3.7418 C.ar    1  LIG1        0.0326
     41 C          -2.5092   10.6317    4.9603 C.ar    1  LIG1       -0.0445
     42 C          -2.6264   10.2766    2.5531 C.ar    1  LIG1        0.0022
     43 C          -3.8728   10.8632    5.0098 C.ar    1  LIG1       -0.0432
     44 H          -1.9098   10.6754    5.8587 H       1  LIG1        0.0630
     45 C          -3.9995   10.5152    2.6095 C.ar    1  LIG1       -0.0353
     46 C          -4.6113   10.8062    3.8253 C.ar    1  LIG1        0.0524
     47 H          -4.5891   10.4783    1.7044 H       1  LIG1        0.0637
     48 H          -4.3669   11.0886    5.9447 H       1  LIG1        0.0631
     49 C          -0.4497   10.1335    3.7517 C.1     1  LIG1       -0.0691
     50 C           0.7384    9.9635    3.8093 C.1     1  LIG1       -0.1139
     51 H           1.7915    9.8067    3.8572 H       1  LIG1        0.1232
     52 N          -7.1659   11.2723    3.8882 N.1     1  LIG1       -0.1909
     53 C          -6.0384   11.0617    3.8593 C.1     1  LIG1        0.0992
@<TRIPOS>BOND
     1     7     8    3
     2     6     1    1
     3     8     2    1
     4     1     2   ar
     5     1     5   ar
     6     2     3   ar
     7     5     4   ar
     8    21    19    1
     9     3     4   ar
    10     3     9    1
    11     4    13    1
    12    19    20    1
    13    19    12    1
    14     9    10    3
    15    10    11    1
    16    13    12   ar
    17    13    14   ar
    18    12    17   ar
    19    18    14    1
    20    14    15   ar
    21    17    16   ar
    22    15    16   ar
    23    15    22    1
    24    16    27    1
    25    32    30    1
    26    23    22    1
    27    39    36    1
    28    22    24    1
    29    27    30   ar
    30    27    25   ar
    31    38    36    1
    32    30    31   ar
    33    36    37    1
    34    36    35    1
    35    33    34    3
    36    34    25    1
    37    25    26   ar
    38    31    35    1
    39    31    28   ar
    40    26    28   ar
    41    26    29    1
    42    28    42    1
    43    47    45    1
    44    42    45   ar
    45    42    40   ar
    46    45    46   ar
    47    40    49    1
    48    40    41   ar
    49    49    50    3
    50    50    51    1
    51    46    53    1
    52    46    43   ar
    53    53    52    3
    54    41    43   ar
    55    41    44    1
    56    43    48    1
