@<TRIPOS>MOLECULE
mol_data/opt/m06hf/geoms/mol2/12de13hf6lf4lf-.out
 52 55 0 0 0
SMALL
GASTEIGER

@<TRIPOS>ATOM
      1 C          -1.9561    3.4596    7.0130 C.ar    1  LIG1        0.1112
      2 C          -1.9016    4.1122    8.1990 C.ar    1  LIG1        0.1054
      3 C          -1.8863    5.5269    7.8898 C.ar    1  LIG1        0.0892
      4 C          -1.9111    5.5977    6.5246 C.ar    1  LIG1        0.1694
      5 O          -1.9586    4.3472    6.0060 O.2     1  LIG1       -0.4588
      6 H          -1.9919    2.4151    6.7592 H       1  LIG1        0.1043
      7 N          -1.8653    3.0393   10.5455 N.1     1  LIG1       -0.1907
      8 C          -1.8830    3.5164    9.5028 C.1     1  LIG1        0.1036
      9 C          -1.9220    6.5927    8.8408 C.1     1  LIG1       -0.0645
     10 C          -1.9727    7.4515    9.6809 C.1     1  LIG1       -0.1138
     11 H          -2.0327    8.1983   10.4394 H       1  LIG1        0.1232
     12 C          -1.8893    6.7006    5.5857 C.ar    1  LIG1        0.1084
     13 C          -1.3245    7.9659    5.6931 C.ar    1  LIG1        0.0960
     14 C          -1.5825    8.6206    4.4743 C.ar    1  LIG1        0.1637
     15 C          -2.2830    7.7583    3.6446 C.ar    1  LIG1        0.0961
     16 N          -2.4488    6.5978    4.3529 N.ar    1  LIG1       -0.3472
     17 H          -2.9451    5.8016    3.9744 H       1  LIG1        0.1662
     18 N          -0.5652    8.6091    6.7087 N.pl3   1  LIG1       -0.3534
     19 H          -1.0718    8.6493    7.5878 H       1  LIG1        0.1425
     20 H           0.3152    8.1296    6.8756 H       1  LIG1        0.1425
     21 O          -1.1674    9.8856    4.2113 O.3     1  LIG1       -0.5031
     22 H          -0.7085   10.1731    5.0183 H       1  LIG1        0.2923
     23 C          -3.4911    7.0032    1.5536 C.ar    1  LIG1        0.2247
     24 C          -2.7792    7.9731    2.2856 C.ar    1  LIG1        0.0669
     25 C          -2.5520    9.1822    1.6365 C.ar    1  LIG1       -0.0037
     26 C          -3.0289    9.3906    0.3450 C.ar    1  LIG1        0.1437
     27 C          -3.7528    8.3722   -0.2758 C.ar    1  LIG1        0.1197
     28 N          -3.9448    7.2003    0.3404 N.ar    1  LIG1       -0.2085
     29 H          -1.9930    9.9562    2.1507 H       1  LIG1        0.0663
     30 O          -3.7217    5.7971    2.1406 O.3     1  LIG1       -0.4792
     31 C          -4.4746    4.8536    1.3793 C.3     1  LIG1        0.0804
     32 H          -4.5764    3.9827    2.0214 H       1  LIG1        0.0660
     33 H          -5.4486    5.2700    1.1266 H       1  LIG1        0.0660
     34 H          -3.9417    4.6014    0.4636 H       1  LIG1        0.0660
     35 O          -2.7761   10.5398   -0.3386 O.3     1  LIG1       -0.5046
     36 H          -2.2044   11.1124    0.1833 H       1  LIG1        0.2922
     37 C          -5.0683    9.6006   -2.0289 C.ar    1  LIG1        0.1296
     38 C          -5.5411    9.6993   -3.3384 C.ar    1  LIG1       -0.0159
     39 C          -4.2884    8.5039   -1.6591 C.ar    1  LIG1        0.0491
     40 C          -5.2547    8.7080   -4.2663 C.ar    1  LIG1       -0.0167
     41 H          -6.1540   10.5436   -3.6250 H       1  LIG1        0.0655
     42 C          -4.0333    7.4917   -2.5844 C.ar    1  LIG1       -0.0074
     43 C          -4.5071    7.5950   -3.8858 C.ar    1  LIG1        0.1177
     44 H          -3.4533    6.6317   -2.2677 H       1  LIG1        0.0662
     45 H          -5.6136    8.7683   -5.2848 H       1  LIG1        0.0655
     46 O          -5.3929   10.5091   -1.0639 O.3     1  LIG1       -0.4944
     47 C          -5.2382   11.8781   -1.4070 C.3     1  LIG1        0.0788
     48 H          -5.2295   12.4248   -0.4666 H       1  LIG1        0.0660
     49 H          -4.2951   12.0275   -1.9346 H       1  LIG1        0.0660
     50 H          -6.0739   12.2257   -2.0182 H       1  LIG1        0.0660
     51 O          -4.2700    6.6416   -4.8350 O.3     1  LIG1       -0.5067
     52 H          -3.7045    5.9491   -4.4783 H       1  LIG1        0.2921
@<TRIPOS>BOND
     1    45    40    1
     2    51    52    1
     3    51    43    1
     4    40    43   ar
     5    40    38   ar
     6    43    42   ar
     7    41    38    1
     8    38    37   ar
     9    42    44    1
    10    42    39   ar
    11    37    39   ar
    12    37    46    1
    13    50    47    1
    14    49    47    1
    15    39    27    1
    16    47    46    1
    17    47    48    1
    18    35    36    1
    19    35    26    1
    20    27    28   ar
    21    27    26   ar
    22    28    23   ar
    23    26    25   ar
    24    34    31    1
    25    33    31    1
    26    31    32    1
    27    31    30    1
    28    23    30    1
    29    23    24   ar
    30    25    29    1
    31    25    24   ar
    32    24    15    1
    33    15    16   ar
    34    15    14   ar
    35    17    16    1
    36    21    14    1
    37    21    22    1
    38    16    12   ar
    39    14    13   ar
    40    12    13   ar
    41    12     4    1
    42    13    18    1
    43     5     4   ar
    44     5     1   ar
    45     4     3   ar
    46    18    20    1
    47    18    19    1
    48     6     1    1
    49     1     2   ar
    50     3     2   ar
    51     3     9    1
    52     2     8    1
    53     9    10    3
    54     8     7    3
    55    10    11    1
