@<TRIPOS>MOLECULE
mol_data/opt/m06hf/geoms/mol2/12de12hh-13aa13id.out
 43 46 0 0 0
SMALL
GASTEIGER

@<TRIPOS>ATOM
      1 C           0.4332    1.8639    1.1295 C.ar    1  LIG1        0.1113
      2 C           1.6950    1.8163    0.6401 C.ar    1  LIG1        0.1055
      3 C           1.9829    3.1386    0.1261 C.ar    1  LIG1        0.0908
      4 C           0.8598    3.8783    0.3809 C.ar    1  LIG1        0.1882
      5 O          -0.0693    3.0995    0.9805 O.2     1  LIG1       -0.4572
      6 H          -0.1969    1.1230    1.5883 H       1  LIG1        0.1043
      7 N           3.2648   -0.2307    0.5924 N.1     1  LIG1       -0.1907
      8 C           2.5645    0.6772    0.6141 C.1     1  LIG1        0.1036
      9 C           3.1644    3.5452   -0.5625 C.1     1  LIG1       -0.0645
     10 C           4.1636    3.8666   -1.1501 C.1     1  LIG1       -0.1138
     11 H           5.0477    4.1213   -1.6883 H       1  LIG1        0.1232
     12 C           0.5321    5.2658    0.1656 C.ar    1  LIG1        0.1942
     13 C           1.2887    6.4051    0.1176 C.ar    1  LIG1        0.0958
     14 C           0.3508    7.4865   -0.0910 C.ar    1  LIG1        0.0942
     15 C          -0.8833    6.9145   -0.1400 C.ar    1  LIG1        0.1743
     16 O          -0.7940    5.5811    0.0083 O.2     1  LIG1       -0.4464
     17 N           2.6367    6.5927    0.3247 N.pl3   1  LIG1       -0.3535
     18 H           3.2387    5.8045    0.1251 H       1  LIG1        0.1425
     19 H           2.9869    7.4682   -0.0384 H       1  LIG1        0.1425
     20 N           0.6247    8.8710   -0.2011 N.pl3   1  LIG1       -0.3535
     21 H           1.1213    9.2309    0.6074 H       1  LIG1        0.1425
     22 H           1.1249    9.1070   -1.0519 H       1  LIG1        0.1425
     23 C          -2.2118    7.4701   -0.3185 C.ar    1  LIG1        0.0845
     24 C          -2.6408    8.7687   -0.5074 C.ar    1  LIG1       -0.0327
     25 C          -4.0537    8.7224   -0.6123 C.ar    1  LIG1       -0.0343
     26 C          -4.4385    7.4019   -0.4790 C.ar    1  LIG1        0.0637
     27 N          -3.3076    6.6547   -0.3068 N.ar    1  LIG1       -0.3506
     28 H          -3.2769    5.6697   -0.0877 H       1  LIG1        0.1660
     29 H          -1.9900    9.6241   -0.5636 H       1  LIG1        0.0640
     30 H          -4.7271    9.5437   -0.7915 H       1  LIG1        0.0639
     31 C          -5.7683    6.7884   -0.5111 C.ar    1  LIG1        0.0671
     32 C          -6.9174    7.1164    0.1685 C.ar    1  LIG1       -0.0064
     33 C          -7.9057    6.1753   -0.2602 C.ar    1  LIG1        0.0725
     34 C          -7.3274    5.3179   -1.1712 C.ar    1  LIG1        0.0199
     35 N          -6.0367    5.6982   -1.3108 N.ar    1  LIG1       -0.3581
     36 H          -5.3789    5.3073   -1.9679 H       1  LIG1        0.1654
     37 H          -7.7504    4.4884   -1.7102 H       1  LIG1        0.0820
     38 C          -7.1112    8.2205    1.1739 C.3     1  LIG1       -0.0364
     39 H          -7.6594    7.8452    2.0382 H       1  LIG1        0.0279
     40 H          -7.6845    9.0388    0.7353 H       1  LIG1        0.0279
     41 H          -6.1420    8.5993    1.4964 H       1  LIG1        0.0279
     42 N         -10.3459    6.1068    0.5849 N.1     1  LIG1       -0.1908
     43 C          -9.2644    6.1254    0.1983 C.1     1  LIG1        0.1009
@<TRIPOS>BOND
     1    36    35    1
     2    37    34    1
     3    11    10    1
     4    35    34   ar
     5    35    31   ar
     6    34    33   ar
     7    10     9    3
     8    22    20    1
     9    30    25    1
    10    25    24   ar
    11    25    26   ar
    12    29    24    1
    13     9     3    1
    14    31    26    1
    15    31    32   ar
    16    24    23   ar
    17    26    27   ar
    18    23    27   ar
    19    23    15    1
    20    27    28    1
    21    33    32   ar
    22    33    43    1
    23    20    14    1
    24    20    21    1
    25    15    14   ar
    26    15    16   ar
    27    14    13   ar
    28    19    17    1
    29    16    12   ar
    30    13    12   ar
    31    13    17    1
    32    18    17    1
    33     3     4   ar
    34     3     2   ar
    35    12     4    1
    36    32    38    1
    37    43    42    3
    38     4     5   ar
    39     7     8    3
    40     8     2    1
    41     2     1   ar
    42    40    38    1
    43     5     1   ar
    44     1     6    1
    45    38    41    1
    46    38    39    1
