@<TRIPOS>MOLECULE
mol_data/opt/m06hf/geoms/mol2/12df4ii-12id-4da.out
 49 52 0 0 0
SMALL
GASTEIGER

@<TRIPOS>ATOM
      1 C           1.3389    1.8879    1.3628 C.ar    1  LIG1        0.1136
      2 C           1.5919    1.6769    0.0431 C.ar    1  LIG1        0.1314
      3 C           1.4071    2.9532   -0.5960 C.ar    1  LIG1        0.1804
      4 C           1.0795    3.8339    0.3869 C.ar    1  LIG1        0.1775
      5 O           1.0222    3.1661    1.5747 O.2     1  LIG1       -0.4578
      6 H           1.3526    1.2298    2.2139 H       1  LIG1        0.1044
      7 N           2.2105   -0.5616   -1.0792 N.1     1  LIG1       -0.1906
      8 C           1.9387    0.4357   -0.5822 C.1     1  LIG1        0.1060
      9 O           1.5195    3.1539   -1.9285 O.3     1  LIG1       -0.5024
     10 H           0.9506    3.8871   -2.1949 H       1  LIG1        0.2923
     11 C           1.5446    6.1914   -0.3035 C.ar    1  LIG1       -0.0390
     12 C           1.1082    7.5163   -0.3438 C.ar    1  LIG1       -0.0472
     13 C           0.7185    5.2625    0.3455 C.ar    1  LIG1        0.0241
     14 C          -0.0796    7.9193    0.2641 C.ar    1  LIG1        0.0208
     15 H           1.7072    8.2576   -0.8602 H       1  LIG1        0.0627
     16 C          -0.4670    5.6699    0.9665 C.ar    1  LIG1       -0.0471
     17 C          -0.8855    6.9943    0.9491 C.ar    1  LIG1       -0.0391
     18 H          -1.0661    4.9261    1.4783 H       1  LIG1        0.0627
     19 C           2.8890    5.8061   -0.8965 C.3     1  LIG1       -0.0390
     20 H           3.4603    6.7043   -1.1260 H       1  LIG1        0.0278
     21 H           2.7818    5.2178   -1.8087 H       1  LIG1        0.0278
     22 H           3.4489    5.2029   -0.1806 H       1  LIG1        0.0278
     23 C          -2.1626    7.4137    1.6534 C.3     1  LIG1       -0.0390
     24 H          -2.4953    6.6192    2.3197 H       1  LIG1        0.0278
     25 H          -2.9493    7.6233    0.9281 H       1  LIG1        0.0278
     26 H          -1.9920    8.3187    2.2389 H       1  LIG1        0.0278
     27 C          -0.4563    9.3460    0.1995 C.ar    1  LIG1        0.1401
     28 C           0.2348   10.4852    0.4710 C.ar    1  LIG1        0.0133
     29 C          -0.6982   11.5543    0.2097 C.ar    1  LIG1        0.1009
     30 C          -1.8723   10.9795   -0.1825 C.ar    1  LIG1        0.1545
     31 O          -1.7234    9.6461   -0.1966 O.2     1  LIG1       -0.4532
     32 C           1.6471   10.6484    0.9660 C.3     1  LIG1       -0.0349
     33 H           1.6636   11.3636    1.7885 H       1  LIG1        0.0279
     34 H           2.2881   11.0277    0.1687 H       1  LIG1        0.0279
     35 H           2.0328    9.6916    1.3147 H       1  LIG1        0.0279
     36 N          -0.1192   14.0679    0.2966 N.1     1  LIG1       -0.1907
     37 C          -0.3999   12.9556    0.2671 C.1     1  LIG1        0.1032
     38 C          -3.8075   12.5597    0.0650 C.ar    1  LIG1        0.0624
     39 C          -5.0173   13.0796   -0.3987 C.ar    1  LIG1       -0.0437
     40 C          -3.1667   11.5229   -0.6260 C.ar    1  LIG1        0.0359
     41 C          -5.6002   12.5516   -1.5437 C.ar    1  LIG1       -0.0605
     42 H          -5.4911   13.8811    0.1507 H       1  LIG1        0.0631
     43 C          -3.7736   10.9883   -1.7631 C.ar    1  LIG1       -0.0498
     44 C          -4.9835   11.4993   -2.2183 C.ar    1  LIG1       -0.0610
     45 H          -3.2828   10.1786   -2.2863 H       1  LIG1        0.0625
     46 H          -6.5375   12.9540   -1.9030 H       1  LIG1        0.0618
     47 N          -2.8825   13.4506    2.3215 N.1     1  LIG1       -0.1908
     48 C          -3.2699   13.0615    1.3139 C.1     1  LIG1        0.0999
     49 H          -5.4416   11.0810   -3.1045 H       1  LIG1        0.0618
@<TRIPOS>BOND
     1    49    44    1
     2    45    43    1
     3    44    43   ar
     4    44    41   ar
     5    10     9    1
     6     9     3    1
     7    46    41    1
     8    21    19    1
     9    43    40   ar
    10    41    39   ar
    11    20    19    1
    12     7     8    3
    13    19    11    1
    14    19    22    1
    15    15    12    1
    16    40    30    1
    17    40    38   ar
    18     3     2   ar
    19     3     4   ar
    20     8     2    1
    21    39    38   ar
    22    39    42    1
    23    12    11   ar
    24    12    14   ar
    25    11    13   ar
    26    31    30   ar
    27    31    27   ar
    28    30    29   ar
    29     2     1   ar
    30    38    48    1
    31    34    32    1
    32    27    14    1
    33    27    28   ar
    34    29    37    1
    35    29    28   ar
    36    14    17   ar
    37    37    36    3
    38    13     4    1
    39    13    16   ar
    40     4     5   ar
    41    28    32    1
    42    25    23    1
    43    17    16   ar
    44    17    23    1
    45    32    35    1
    46    32    33    1
    47    16    18    1
    48    48    47    3
    49     1     5   ar
    50     1     6    1
    51    23    26    1
    52    23    24    1
