@<TRIPOS>MOLECULE
mol_data/opt/m06hf/geoms/mol2/12df13hh13dl4fd-13ei6ii-6ie12hf.out
 100 107 0 0 0
SMALL
GASTEIGER

@<TRIPOS>ATOM
      1 C           2.0242    2.5510    0.0975 C.ar    1  LIG1        0.1137
      2 C           3.2937    2.9264    0.4061 C.ar    1  LIG1        0.1315
      3 C           3.3271    4.3677    0.3212 C.ar    1  LIG1        0.1819
      4 C           2.0628    4.7357   -0.0344 C.ar    1  LIG1        0.1952
      5 O           1.2755    3.6262   -0.1681 O.2     1  LIG1       -0.4563
      6 H           1.5513    1.5865    0.0358 H       1  LIG1        0.1044
      7 N           5.2545    1.3685    1.0235 N.1     1  LIG1       -0.1906
      8 C           4.3848    2.0638    0.7489 C.1     1  LIG1        0.1060
      9 O           4.4031    5.1136    0.5582 O.3     1  LIG1       -0.5023
     10 H           4.1584    6.0749    0.4194 H       1  LIG1        0.2923
     11 C           1.4571    6.0303   -0.2749 C.ar    1  LIG1        0.1090
     12 C           2.0242    7.2896   -0.2584 C.ar    1  LIG1        0.0750
     13 C           1.0073    8.2314   -0.5947 C.ar    1  LIG1        0.0734
     14 C          -0.1504    7.5031   -0.8025 C.ar    1  LIG1        0.0876
     15 N           0.1481    6.1676   -0.5916 N.ar    1  LIG1       -0.3475
     16 H          -0.4539    5.3939   -0.8289 H       1  LIG1        0.1662
     17 N           3.3947    7.5607    0.0611 N.pl3   1  LIG1       -0.3548
     18 H           3.8899    7.9767   -0.7254 H       1  LIG1        0.1424
     19 H           3.4759    8.1819    0.8638 H       1  LIG1        0.1424
     20 N           1.1766    9.6156   -0.5841 N.pl3   1  LIG1       -0.3548
     21 H           2.1485    9.8861   -0.6626 H       1  LIG1        0.1424
     22 H           0.6224   10.1121   -1.2719 H       1  LIG1        0.1424
     23 C          -1.5109    7.9269   -1.0867 C.ar    1  LIG1        0.0865
     24 C          -1.9963    8.9212   -1.9237 C.ar    1  LIG1        0.1206
     25 C          -3.4237    8.9244   -1.8087 C.ar    1  LIG1        0.1633
     26 C          -3.7620    7.9369   -0.9180 C.ar    1  LIG1        0.0941
     27 N          -2.5877    7.3359   -0.5089 N.ar    1  LIG1       -0.3489
     28 H          -2.5237    6.6989    0.2722 H       1  LIG1        0.1661
     29 N          -0.4986   10.3973   -3.4133 N.1     1  LIG1       -0.1907
     30 C          -1.1840    9.7300   -2.7739 C.1     1  LIG1        0.1050
     31 O          -4.3008    9.6801   -2.5035 O.3     1  LIG1       -0.4917
     32 C          -4.1599   11.0877   -2.2965 C.3     1  LIG1        0.0789
     33 H          -4.9978   11.5491   -2.8123 H       1  LIG1        0.0660
     34 H          -4.2018   11.3058   -1.2294 H       1  LIG1        0.0660
     35 H          -3.2215   11.4428   -2.7239 H       1  LIG1        0.0660
     36 C          -6.0841    8.3521   -0.0687 C.ar    1  LIG1        0.1268
     37 C          -7.3344    7.8864    0.3239 C.ar    1  LIG1       -0.0091
     38 C          -5.0802    7.4578   -0.4782 C.ar    1  LIG1        0.0446
     39 C          -7.6246    6.5218    0.3671 C.ar    1  LIG1        0.0203
     40 H          -8.0998    8.5949    0.6143 H       1  LIG1        0.0661
     41 C          -5.3690    6.1000   -0.4514 C.ar    1  LIG1       -0.0310
     42 C          -6.6113    5.6292   -0.0242 C.ar    1  LIG1        0.0617
     43 H          -4.6250    5.3887   -0.7863 H       1  LIG1        0.0638
     44 O          -5.7900    9.6687   -0.0657 O.3     1  LIG1       -0.5061
     45 H          -6.5451   10.1859    0.2355 H       1  LIG1        0.2922
     46 N          -6.9656    3.0595   -0.0532 N.1     1  LIG1       -0.1908
     47 C          -6.8114    4.1980   -0.0231 C.1     1  LIG1        0.0998
     48 C          -8.9624    6.0939    0.8089 C.ar    1  LIG1        0.0641
     49 C          -9.8764    6.7474    1.6319 C.ar    1  LIG1        0.0534
     50 C         -11.0418    5.9322    1.7322 C.ar    1  LIG1       -0.0092
     51 C         -10.7986    4.8103    0.9672 C.ar    1  LIG1        0.0528
     52 N          -9.5480    4.9251    0.4285 N.ar    1  LIG1       -0.3529
     53 H          -9.1366    4.2392   -0.1900 H       1  LIG1        0.1659
     54 C          -9.7111    7.9917    2.3239 C.1     1  LIG1       -0.0673
     55 C          -9.6193    9.0306    2.9257 C.1     1  LIG1       -0.1138
     56 H          -9.5434    9.9404    3.4757 H       1  LIG1        0.1232
     57 C         -12.2637    6.2439    2.5561 C.3     1  LIG1       -0.0365
     58 H         -12.8848    5.3548    2.6583 H       1  LIG1        0.0279
     59 H         -12.8509    7.0373    2.0903 H       1  LIG1        0.0279
     60 H         -11.9623    6.5835    3.5474 H       1  LIG1        0.0279
     61 C         -11.2434    2.3259    0.9391 C.ar    1  LIG1        0.0480
     62 C         -11.6646    3.6438    0.6907 C.ar    1  LIG1        0.0199
     63 C         -12.9520    3.8424    0.1988 C.ar    1  LIG1       -0.0460
     64 C         -13.7913    2.7636   -0.0653 C.ar    1  LIG1       -0.0238
     65 C         -13.2584    1.4890    0.1752 C.ar    1  LIG1        0.0759
     66 N         -12.0364    1.2923    0.6719 N.ar    1  LIG1       -0.2509
     67 H         -13.2960    4.8552    0.0189 H       1  LIG1        0.0628
     68 C          -9.8871    1.9990    1.5308 C.3     1  LIG1       -0.0217
     69 H          -9.5573    2.7866    2.2092 H       1  LIG1        0.0293
     70 H          -9.1379    1.8817    0.7444 H       1  LIG1        0.0293
     71 H          -9.9734    1.0542    2.0639 H       1  LIG1        0.0293
     72 C         -15.2071    2.9869   -0.5649 C.3     1  LIG1       -0.0377
     73 H         -15.8833    2.2406   -0.1491 H       1  LIG1        0.0278
     74 H         -15.2539    2.9219   -1.6536 H       1  LIG1        0.0278
     75 H         -15.5461    3.9790   -0.2676 H       1  LIG1        0.0278
     76 C         -14.3092   -0.7022    0.9013 C.ar    1  LIG1        0.0483
     77 C         -14.0506    0.2511   -0.1066 C.ar    1  LIG1        0.0228
     78 C         -14.5181   -0.0086   -1.3828 C.ar    1  LIG1       -0.0333
     79 C         -15.2411   -1.1781   -1.6390 C.ar    1  LIG1        0.0543
     80 C         -15.5074   -2.0348   -0.5597 C.ar    1  LIG1        0.1235
     81 N         -15.0270   -1.7919    0.6636 N.ar    1  LIG1       -0.2468
     82 H         -14.2975    0.6668   -2.2002 H       1  LIG1        0.0637
     83 C         -13.7982   -0.5263    2.3154 C.3     1  LIG1       -0.0217
     84 H         -14.0518    0.4662    2.6923 H       1  LIG1        0.0293
     85 H         -12.7125   -0.6218    2.3257 H       1  LIG1        0.0293
     86 H         -14.2553   -1.2941    2.9343 H       1  LIG1        0.0293
     87 C         -15.6102   -1.4973   -2.9938 C.1     1  LIG1       -0.0674
     88 C         -15.8835   -1.7409   -4.1404 C.1     1  LIG1       -0.1138
     89 H         -16.0997   -1.9750   -5.1572 H       1  LIG1        0.1232
     90 C         -16.3302   -3.2427   -0.6991 C.ar    1  LIG1        0.1783
     91 C         -17.5012   -3.5045   -1.3570 C.ar    1  LIG1        0.1146
     92 C         -17.8411   -4.8535   -0.9876 C.ar    1  LIG1        0.1763
     93 C         -16.8739   -5.2932   -0.1491 C.ar    1  LIG1        0.1359
     94 O         -15.9577   -4.3245    0.0363 O.2     1  LIG1       -0.4557
     95 H         -16.7130   -6.2283    0.3573 H       1  LIG1        0.1068
     96 N         -18.3318   -2.6982   -2.1250 N.pl3   1  LIG1       -0.3522
     97 H         -17.8462   -2.1355   -2.8123 H       1  LIG1        0.1425
     98 H         -19.0928   -3.2306   -2.5280 H       1  LIG1        0.1425
     99 O         -18.9655   -5.4482   -1.4784 O.3     1  LIG1       -0.5024
    100 H         -19.1626   -6.2574   -0.9961 H       1  LIG1        0.2923
@<TRIPOS>BOND
     1    89    88    1
     2    88    87    3
     3    29    30    3
     4    87    79    1
     5    97    96    1
     6    33    32    1
     7    30    24    1
     8    35    32    1
     9    98    96    1
    10    31    32    1
    11    31    25    1
    12    32    34    1
    13    82    78    1
    14    96    91    1
    15    24    25   ar
    16    24    23   ar
    17    25    26   ar
    18    74    72    1
    19    79    78   ar
    20    79    80   ar
    21    99   100    1
    22    99    92    1
    23    78    77   ar
    24    91    92   ar
    25    91    90   ar
    26    22    20    1
    27    23    14    1
    28    23    27   ar
    29    92    93   ar
    30    26    27   ar
    31    26    38    1
    32    16    15    1
    33    14    13   ar
    34    14    15   ar
    35    43    41    1
    36    18    17    1
    37    90    80    1
    38    90    94   ar
    39    21    20    1
    40    13    20    1
    41    13    12   ar
    42    15    11   ar
    43    72    75    1
    44    72    73    1
    45    72    64    1
    46    80    81   ar
    47    27    28    1
    48    38    41   ar
    49    38    36   ar
    50    41    42   ar
    51    11    12   ar
    52    11     4    1
    53    12    17    1
    54    53    52    1
    55     5     4   ar
    56     5     1   ar
    57    93    94   ar
    58    93    95    1
    59    77    65    1
    60    77    76   ar
    61    36    44    1
    62    36    37   ar
    63    44    45    1
    64    64    65   ar
    65    64    63   ar
    66    46    47    3
    67     4     3   ar
    68    42    47    1
    69    42    39   ar
    70    67    63    1
    71     6     1    1
    72    17    19    1
    73     1     2   ar
    74    65    66   ar
    75    63    62   ar
    76     3     2   ar
    77     3     9    1
    78    37    39   ar
    79    37    40    1
    80    39    48    1
    81     2     8    1
    82    10     9    1
    83    52    48   ar
    84    52    51   ar
    85    81    76   ar
    86    66    61   ar
    87    62    61   ar
    88    62    51    1
    89    70    68    1
    90     8     7    3
    91    48    49   ar
    92    76    83    1
    93    61    68    1
    94    51    50   ar
    95    68    71    1
    96    68    69    1
    97    49    50   ar
    98    49    54    1
    99    50    57    1
   100    59    57    1
   101    83    85    1
   102    83    84    1
   103    83    86    1
   104    54    55    3
   105    57    58    1
   106    57    60    1
   107    55    56    1
