@<TRIPOS>MOLECULE
mol_data/opt/m06hf/geoms/mol2/12dg12dg-12dg-12dg.out
 38 41 0 0 0
SMALL
GASTEIGER

@<TRIPOS>ATOM
      1 C           1.0518    2.2198    1.9216 C.ar    1  LIG1        0.1112
      2 C           1.9586    1.9577    0.9427 C.ar    1  LIG1        0.1033
      3 C           1.9424    3.0924    0.0500 C.ar    1  LIG1        0.0712
      4 C           1.0201    3.9381    0.5875 C.ar    1  LIG1        0.1854
      5 O           0.4867    3.4131    1.7116 O.2     1  LIG1       -0.4573
      6 H           0.7314    1.6647    2.7860 H       1  LIG1        0.1043
      7 N           3.3940   -0.1770    0.7383 N.1     1  LIG1       -0.1907
      8 C           2.7586    0.7732    0.8255 C.1     1  LIG1        0.1034
      9 S           2.8002    3.2414   -1.4864 S.3     1  LIG1       -0.1376
     10 H           3.8222    3.9666   -1.0148 H       1  LIG1        0.1073
     11 C           0.5408    5.2511    0.1785 C.ar    1  LIG1        0.1902
     12 C           1.1839    6.3527   -0.3077 C.ar    1  LIG1        0.1144
     13 C           0.1735    7.3523   -0.5454 C.ar    1  LIG1        0.0719
     14 C          -0.9921    6.7600   -0.1585 C.ar    1  LIG1        0.1864
     15 O          -0.7721    5.5016    0.2773 O.2     1  LIG1       -0.4461
     16 N           3.7381    6.5834   -0.5893 N.1     1  LIG1       -0.1907
     17 C           2.6002    6.4881   -0.4768 C.1     1  LIG1        0.1042
     18 S           0.4168    8.9193   -1.3240 S.3     1  LIG1       -0.1376
     19 H           0.3367    9.6541   -0.2063 H       1  LIG1        0.1073
     20 C          -2.3681    7.2358   -0.1244 C.ar    1  LIG1        0.1902
     21 C          -2.9157    8.4319    0.2387 C.ar    1  LIG1        0.1144
     22 C          -4.3390    8.3112    0.0484 C.ar    1  LIG1        0.0719
     23 C          -4.5189    7.0345   -0.3959 C.ar    1  LIG1        0.1864
     24 O          -3.3373    6.3899   -0.4990 O.2     1  LIG1       -0.4461
     25 N          -1.5969   10.4182    1.2217 N.1     1  LIG1       -0.1907
     26 C          -2.1966    9.5478    0.7753 C.1     1  LIG1        0.1042
     27 S          -5.5265    9.6090    0.1974 S.3     1  LIG1       -0.1376
     28 H          -6.0038    9.2392    1.3921 H       1  LIG1        0.1073
     29 C          -5.7177    6.2798   -0.7356 C.ar    1  LIG1        0.1892
     30 C          -6.9386    6.1982   -0.1296 C.ar    1  LIG1        0.1136
     31 C          -7.7255    5.2857   -0.9191 C.ar    1  LIG1        0.0607
     32 C          -6.9027    4.8920   -1.9228 C.ar    1  LIG1        0.1071
     33 O          -5.6948    5.4896   -1.8117 O.2     1  LIG1       -0.4573
     34 H          -7.0330    4.2205   -2.7528 H       1  LIG1        0.1041
     35 N          -7.5817    7.3619    2.0812 N.1     1  LIG1       -0.1907
     36 C          -7.3061    6.8453    1.0937 C.1     1  LIG1        0.1042
     37 S          -9.3900    4.8399   -0.5452 S.3     1  LIG1       -0.1383
     38 H          -9.4851    3.9302   -1.5209 H       1  LIG1        0.1072
@<TRIPOS>BOND
     1    34    32    1
     2    32    33   ar
     3    32    31   ar
     4    33    29   ar
     5    38    37    1
     6     9    10    1
     7     9     3    1
     8    18    13    1
     9    18    19    1
    10    31    37    1
    11    31    30   ar
    12    29    23    1
    13    29    30   ar
    14    16    17    3
    15    13    12   ar
    16    13    14   ar
    17    24    23   ar
    18    24    20   ar
    19    17    12    1
    20    23    22   ar
    21    12    11   ar
    22    14    20    1
    23    14    15   ar
    24    30    36    1
    25    20    21   ar
    26    22    27    1
    27    22    21   ar
    28     3     4   ar
    29     3     2   ar
    30    11    15   ar
    31    11     4    1
    32    27    28    1
    33    21    26    1
    34     4     5   ar
    35     7     8    3
    36    26    25    3
    37     8     2    1
    38     2     1   ar
    39    36    35    3
    40     5     1   ar
    41     1     6    1
