@<TRIPOS>MOLECULE
mol_data/opt/m06hf/geoms/mol2/12dg12dg12dg-12dg-.out
 38 41 0 0 0
SMALL
GASTEIGER

@<TRIPOS>ATOM
      1 C           1.0277    2.2211    1.9347 C.ar    1  LIG1        0.1112
      2 C           1.9506    1.9563    0.9717 C.ar    1  LIG1        0.1033
      3 C           1.9501    3.0881    0.0753 C.ar    1  LIG1        0.0712
      4 C           1.0187    3.9356    0.5951 C.ar    1  LIG1        0.1854
      5 O           0.4679    3.4143    1.7130 O.2     1  LIG1       -0.4573
      6 H           0.6929    1.6683    2.7951 H       1  LIG1        0.1043
      7 N           3.3860   -0.1815    0.8001 N.1     1  LIG1       -0.1907
      8 C           2.7514    0.7706    0.8723 C.1     1  LIG1        0.1034
      9 S           2.8417    3.2198   -1.4434 S.3     1  LIG1       -0.1376
     10 H           3.7708    4.0738   -0.9964 H       1  LIG1        0.1073
     11 C           0.5426    5.2463    0.1761 C.ar    1  LIG1        0.1902
     12 C           1.1891    6.3480   -0.3061 C.ar    1  LIG1        0.1144
     13 C           0.1800    7.3454   -0.5584 C.ar    1  LIG1        0.0719
     14 C          -0.9887    6.7525   -0.1822 C.ar    1  LIG1        0.1864
     15 O          -0.7715    5.4955    0.2595 O.2     1  LIG1       -0.4461
     16 N           3.7465    6.5789   -0.5551 N.1     1  LIG1       -0.1907
     17 C           2.6068    6.4858   -0.4570 C.1     1  LIG1        0.1042
     18 S           0.4300    8.9102   -1.3393 S.3     1  LIG1       -0.1376
     19 H           0.3381    9.6484   -0.2246 H       1  LIG1        0.1073
     20 C          -2.3649    7.2284   -0.1629 C.ar    1  LIG1        0.1902
     21 C          -2.9147    8.4251    0.1944 C.ar    1  LIG1        0.1144
     22 C          -4.3359    8.3068   -0.0122 C.ar    1  LIG1        0.0719
     23 C          -4.5128    7.0304   -0.4584 C.ar    1  LIG1        0.1864
     24 O          -3.3311    6.3838   -0.5482 O.2     1  LIG1       -0.4461
     25 N          -1.6021   10.4088    1.1908 N.1     1  LIG1       -0.1907
     26 C          -2.1995    9.5398    0.7387 C.1     1  LIG1        0.1042
     27 S          -5.5225    9.6069    0.1223 S.3     1  LIG1       -0.1376
     28 H          -6.0152    9.2384    1.3110 H       1  LIG1        0.1073
     29 C          -5.7088    6.2781   -0.8130 C.ar    1  LIG1        0.1892
     30 C          -6.9376    6.1995   -0.2229 C.ar    1  LIG1        0.1136
     31 C          -7.7167    5.2895   -1.0230 C.ar    1  LIG1        0.0607
     32 C          -6.8821    4.8945   -2.0163 C.ar    1  LIG1        0.1071
     33 O          -5.6741    5.4885   -1.8892 O.2     1  LIG1       -0.4573
     34 H          -7.0035    4.2239   -2.8486 H       1  LIG1        0.1041
     35 N          -7.6060    7.3641    1.9799 N.1     1  LIG1       -0.1907
     36 C          -7.3191    6.8469    0.9960 C.1     1  LIG1        0.1042
     37 S          -9.3869    4.8477   -0.6710 S.3     1  LIG1       -0.1383
     38 H          -9.4704    3.9358   -1.6457 H       1  LIG1        0.1072
@<TRIPOS>BOND
     1    34    32    1
     2    32    33   ar
     3    32    31   ar
     4    33    29   ar
     5    38    37    1
     6     9    10    1
     7     9     3    1
     8    18    13    1
     9    18    19    1
    10    31    37    1
    11    31    30   ar
    12    29    23    1
    13    29    30   ar
    14    13    12   ar
    15    13    14   ar
    16    16    17    3
    17    24    23   ar
    18    24    20   ar
    19    23    22   ar
    20    17    12    1
    21    12    11   ar
    22    30    36    1
    23    14    20    1
    24    14    15   ar
    25    20    21   ar
    26    22    27    1
    27    22    21   ar
    28     3     4   ar
    29     3     2   ar
    30    27    28    1
    31    11    15   ar
    32    11     4    1
    33    21    26    1
    34     4     5   ar
    35    26    25    3
    36     7     8    3
    37     8     2    1
    38     2     1   ar
    39    36    35    3
    40     5     1   ar
    41     1     6    1
