@<TRIPOS>MOLECULE
mol_data/opt/m06hf/geoms/mol2/12dg12dg12dg12dg.out
 38 41 0 0 0
SMALL
GASTEIGER

@<TRIPOS>ATOM
      1 C           1.0540    2.2326    1.9265 C.ar    1  LIG1        0.1112
      2 C           1.9646    1.9633    0.9532 C.ar    1  LIG1        0.1033
      3 C           1.9523    3.0908    0.0513 C.ar    1  LIG1        0.0712
      4 C           1.0273    3.9405    0.5789 C.ar    1  LIG1        0.1854
      5 O           0.4910    3.4246    1.7062 O.2     1  LIG1       -0.4573
      6 H           0.7304    1.6839    2.7938 H       1  LIG1        0.1043
      7 N           3.3983   -0.1749    0.7737 N.1     1  LIG1       -0.1907
      8 C           2.7645    0.7774    0.8494 C.1     1  LIG1        0.1034
      9 S           2.8247    3.2150   -1.4791 S.3     1  LIG1       -0.1376
     10 H           3.7578    4.0732   -1.0488 H       1  LIG1        0.1073
     11 C           0.5453    5.2489    0.1594 C.ar    1  LIG1        0.1902
     12 C           1.1851    6.3485   -0.3363 C.ar    1  LIG1        0.1144
     13 C           0.1725    7.3443   -0.5808 C.ar    1  LIG1        0.0719
     14 C          -0.9911    6.7526   -0.1873 C.ar    1  LIG1        0.1864
     15 O          -0.7678    5.4980    0.2578 O.2     1  LIG1       -0.4461
     16 N           3.7391    6.5787   -0.6183 N.1     1  LIG1       -0.1907
     17 C           2.6009    6.4860   -0.5054 C.1     1  LIG1        0.1042
     18 S           0.4122    8.9056   -1.3718 S.3     1  LIG1       -0.1376
     19 H           0.3330    9.6487   -0.2595 H       1  LIG1        0.1073
     20 C          -2.3673    7.2279   -0.1533 C.ar    1  LIG1        0.1902
     21 C          -2.9134    8.4260    0.2050 C.ar    1  LIG1        0.1144
     22 C          -4.3370    8.3058    0.0169 C.ar    1  LIG1        0.0719
     23 C          -4.5185    7.0271   -0.4210 C.ar    1  LIG1        0.1864
     24 O          -3.3375    6.3809   -0.5225 O.2     1  LIG1       -0.4461
     25 N          -1.5901   10.4154    1.1756 N.1     1  LIG1       -0.1907
     26 C          -2.1923    9.5438    0.7350 C.1     1  LIG1        0.1042
     27 S          -5.5228    9.6057    0.1600 S.3     1  LIG1       -0.1376
     28 H          -6.0003    9.2427    1.3566 H       1  LIG1        0.1073
     29 C          -5.7184    6.2723   -0.7567 C.ar    1  LIG1        0.1892
     30 C          -6.9395    6.1957   -0.1504 C.ar    1  LIG1        0.1136
     31 C          -7.7281    5.2814   -0.9361 C.ar    1  LIG1        0.0607
     32 C          -6.9061    4.8821   -1.9383 C.ar    1  LIG1        0.1071
     33 O          -5.6969    5.4775   -1.8295 O.2     1  LIG1       -0.4573
     34 H          -7.0377    4.2076   -2.7657 H       1  LIG1        0.1041
     35 N          -7.5803    7.3704    2.0552 N.1     1  LIG1       -0.1907
     36 C          -7.3057    6.8487    1.0701 C.1     1  LIG1        0.1042
     37 S          -9.3933    4.8403   -0.5604 S.3     1  LIG1       -0.1383
     38 H          -9.4888    3.9235   -1.5294 H       1  LIG1        0.1072
@<TRIPOS>BOND
     1    34    32    1
     2    32    33   ar
     3    32    31   ar
     4    33    29   ar
     5    38    37    1
     6     9    10    1
     7     9     3    1
     8    18    13    1
     9    18    19    1
    10    31    37    1
    11    31    30   ar
    12    29    23    1
    13    29    30   ar
    14    16    17    3
    15    13    12   ar
    16    13    14   ar
    17    24    23   ar
    18    24    20   ar
    19    17    12    1
    20    23    22   ar
    21    12    11   ar
    22    14    20    1
    23    14    15   ar
    24    20    21   ar
    25    30    36    1
    26    22    27    1
    27    22    21   ar
    28     3     4   ar
    29     3     2   ar
    30    11    15   ar
    31    11     4    1
    32    27    28    1
    33    21    26    1
    34     4     5   ar
    35    26    25    3
    36     7     8    3
    37     8     2    1
    38     2     1   ar
    39    36    35    3
    40     5     1   ar
    41     1     6    1
