@<TRIPOS>MOLECULE
mol_data/opt/m06hf/geoms/mol2/12dg12dg-12dg12dg-.out
 38 41 0 0 0
SMALL
GASTEIGER

@<TRIPOS>ATOM
      1 C           1.0054    2.1789    1.8697 C.ar    1  LIG1        0.1112
      2 C           1.9334    1.9389    0.9052 C.ar    1  LIG1        0.1033
      3 C           1.9355    3.0930    0.0376 C.ar    1  LIG1        0.0712
      4 C           1.0008    3.9261    0.5733 C.ar    1  LIG1        0.1854
      5 O           0.4436    3.3762    1.6739 O.2     1  LIG1       -0.4573
      6 H           0.6669    1.6046    2.7145 H       1  LIG1        0.1043
      7 N           3.3746   -0.1903    0.6846 N.1     1  LIG1       -0.1907
      8 C           2.7367    0.7576    0.7792 C.1     1  LIG1        0.1034
      9 S           2.8253    3.2760   -1.4768 S.3     1  LIG1       -0.1376
     10 H           3.8351    3.9937   -0.9689 H       1  LIG1        0.1073
     11 C           0.5297    5.2475    0.1825 C.ar    1  LIG1        0.1902
     12 C           1.1834    6.3596   -0.2641 C.ar    1  LIG1        0.1144
     13 C           0.1783    7.3638   -0.5045 C.ar    1  LIG1        0.0719
     14 C          -0.9959    6.7630   -0.1586 C.ar    1  LIG1        0.1864
     15 O          -0.7854    5.4955    0.2551 O.2     1  LIG1       -0.4461
     16 N           3.7433    6.5966   -0.4803 N.1     1  LIG1       -0.1907
     17 C           2.6031    6.4989   -0.3965 C.1     1  LIG1        0.1042
     18 S           0.4395    8.9470   -1.2439 S.3     1  LIG1       -0.1376
     19 H           0.3338    9.6578   -0.1130 H       1  LIG1        0.1073
     20 C          -2.3726    7.2376   -0.1468 C.ar    1  LIG1        0.1902
     21 C          -2.9291    8.4266    0.2257 C.ar    1  LIG1        0.1144
     22 C          -4.3478    8.3086    0.0024 C.ar    1  LIG1        0.0719
     23 C          -4.5171    7.0399   -0.4678 C.ar    1  LIG1        0.1864
     24 O          -3.3328    6.3977   -0.5571 O.2     1  LIG1       -0.4461
     25 N          -1.6370   10.3945    1.2786 N.1     1  LIG1       -0.1907
     26 C          -2.2241    9.5325    0.8004 C.1     1  LIG1        0.1042
     27 S          -5.5401    9.6021    0.1508 S.3     1  LIG1       -0.1376
     28 H          -6.0406    9.2099    1.3287 H       1  LIG1        0.1073
     29 C          -5.7103    6.2900   -0.8365 C.ar    1  LIG1        0.1892
     30 C          -6.9379    6.1956   -0.2494 C.ar    1  LIG1        0.1136
     31 C          -7.7066    5.2830   -1.0595 C.ar    1  LIG1        0.0607
     32 C          -6.8687    4.9097   -2.0584 C.ar    1  LIG1        0.1071
     33 O          -5.6725    5.5159   -1.9305 O.2     1  LIG1       -0.4573
     34 H          -6.9958    4.2471   -2.8968 H       1  LIG1        0.1041
     35 N          -7.6152    7.3144    1.9744 N.1     1  LIG1       -0.1907
     36 C          -7.3271    6.8204    0.9791 C.1     1  LIG1        0.1042
     37 S          -9.3942    4.8065   -0.8644 S.3     1  LIG1       -0.1383
     38 H          -9.2046    4.0943    0.2525 H       1  LIG1        0.1072
@<TRIPOS>BOND
     1    34    32    1
     2    32    33   ar
     3    32    31   ar
     4    33    29   ar
     5     9    10    1
     6     9     3    1
     7    18    13    1
     8    18    19    1
     9    31    37    1
    10    31    30   ar
    11    37    38    1
    12    29    23    1
    13    29    30   ar
    14    24    23   ar
    15    24    20   ar
    16    13    12   ar
    17    13    14   ar
    18    16    17    3
    19    23    22   ar
    20    17    12    1
    21    12    11   ar
    22    30    36    1
    23    14    20    1
    24    14    15   ar
    25    20    21   ar
    26    22    27    1
    27    22    21   ar
    28     3     4   ar
    29     3     2   ar
    30    27    28    1
    31    11    15   ar
    32    11     4    1
    33    21    26    1
    34     4     5   ar
    35     7     8    3
    36     8     2    1
    37    26    25    3
    38     2     1   ar
    39    36    35    3
    40     5     1   ar
    41     1     6    1
