@<TRIPOS>MOLECULE
mol_data/opt/m06hf/geoms/mol2/12dg12dg12dg12dg-.out
 38 41 0 0 0
SMALL
GASTEIGER

@<TRIPOS>ATOM
      1 C           0.9426    1.6345    0.0727 C.ar    1  LIG1        0.1112
      2 C           2.1953    1.9416   -0.3566 C.ar    1  LIG1        0.1033
      3 C           2.2814    3.3828   -0.3834 C.ar    1  LIG1        0.0712
      4 C           1.0592    3.8063    0.0425 C.ar    1  LIG1        0.1854
      5 O           0.2558    2.7553    0.3172 O.2     1  LIG1       -0.4573
      6 H           0.4405    0.6982    0.2423 H       1  LIG1        0.1043
      7 N           4.0329    0.2505   -1.0072 N.1     1  LIG1       -0.1907
      8 C           3.2193    1.0053   -0.7195 C.1     1  LIG1        0.1034
      9 S           3.6205    4.3474   -1.0116 S.3     1  LIG1       -0.1376
     10 H           4.1616    4.6451    0.1775 H       1  LIG1        0.1073
     11 C           0.5038    5.1368    0.2457 C.ar    1  LIG1        0.1902
     12 C           1.0313    6.2786    0.7758 C.ar    1  LIG1        0.1144
     13 C           0.0025    7.2848    0.7022 C.ar    1  LIG1        0.0719
     14 C          -1.0613    6.6465    0.1365 C.ar    1  LIG1        0.1864
     15 O          -0.7602    5.3601   -0.1398 O.2     1  LIG1       -0.4461
     16 N           3.3683    6.4778    1.8489 N.1     1  LIG1       -0.1907
     17 C           2.3299    6.4036    1.3668 C.1     1  LIG1        0.1042
     18 S           0.0765    8.9092    1.3899 S.3     1  LIG1       -0.1376
     19 H           0.3050    9.5435    0.2325 H       1  LIG1        0.1073
     20 C          -2.4002    7.1016   -0.2100 C.ar    1  LIG1        0.1902
     21 C          -2.8586    8.2644   -0.7588 C.ar    1  LIG1        0.1144
     22 C          -4.2897    8.1360   -0.8670 C.ar    1  LIG1        0.0719
     23 C          -4.5612    6.8928   -0.3765 C.ar    1  LIG1        0.1864
     24 O          -3.4287    6.2751    0.0215 O.2     1  LIG1       -0.4461
     25 N          -1.3646   10.1917   -1.6002 N.1     1  LIG1       -0.1907
     26 C          -2.0426    9.3471   -1.2210 C.1     1  LIG1        0.1042
     27 S          -5.3801    9.2817   -1.6528 S.3     1  LIG1       -0.1376
     28 H          -5.9203    9.7633   -0.5249 H       1  LIG1        0.1073
     29 C          -5.8060    6.1568   -0.2021 C.ar    1  LIG1        0.1892
     30 C          -7.0397    6.5437    0.2352 C.ar    1  LIG1        0.1136
     31 C          -7.8737    5.3690    0.1944 C.ar    1  LIG1        0.0607
     32 C          -7.0624    4.3794   -0.2532 C.ar    1  LIG1        0.1071
     33 O          -5.8176    4.8525   -0.4903 O.2     1  LIG1       -0.4573
     34 H          -7.2242    3.3336   -0.4445 H       1  LIG1        0.1041
     35 N          -7.6539    8.8945    1.1007 N.1     1  LIG1       -0.1907
     36 C          -7.3881    7.8479    0.7114 C.1     1  LIG1        0.1042
     37 S          -9.5704    5.3492    0.6687 S.3     1  LIG1       -0.1383
     38 H          -9.7024    4.0251    0.5463 H       1  LIG1        0.1072
@<TRIPOS>BOND
     1    27    22    1
     2    27    28    1
     3    25    26    3
     4    26    21    1
     5     9     3    1
     6     9    10    1
     7     7     8    3
     8    22    21   ar
     9    22    23   ar
    10    21    20   ar
    11     8     2    1
    12    33    32   ar
    13    33    29   ar
    14    34    32    1
    15     3     2   ar
    16     3     4   ar
    17    23    29    1
    18    23    24   ar
    19     2     1   ar
    20    32    31   ar
    21    20    24   ar
    22    20    14    1
    23    29    30   ar
    24    15    14   ar
    25    15    11   ar
    26     4    11    1
    27     4     5   ar
    28     1     6    1
    29     1     5   ar
    30    14    13   ar
    31    31    30   ar
    32    31    37    1
    33    19    18    1
    34    30    36    1
    35    11    12   ar
    36    38    37    1
    37    13    12   ar
    38    13    18    1
    39    36    35    3
    40    12    17    1
    41    17    16    3
