@<TRIPOS>MOLECULE
mol_data/opt/m06hf/geoms/mol2/12dg12dg-12dg-.out
 29 31 0 0 0
SMALL
GASTEIGER

@<TRIPOS>ATOM
      1 C           0.5623    1.6887   -0.4609 C.ar    1  LIG1        0.1112
      2 C           1.6735    1.8472    0.3061 C.ar    1  LIG1        0.1033
      3 C           1.8138    3.2649    0.5413 C.ar    1  LIG1        0.0712
      4 C           0.7631    3.8267   -0.1177 C.ar    1  LIG1        0.1854
      5 O           0.0127    2.8797   -0.7213 O.2     1  LIG1       -0.4573
      6 H           0.0788    0.8187   -0.8695 H       1  LIG1        0.1043
      7 N           3.2048   -0.0393    1.1761 N.1     1  LIG1       -0.1907
      8 C           2.5258    0.8005    0.7910 C.1     1  LIG1        0.1034
      9 S           2.9820    4.0545    1.6033 S.3     1  LIG1       -0.1376
     10 H           3.8546    4.3818    0.6436 H       1  LIG1        0.1073
     11 C           0.3502    5.2137   -0.2826 C.ar    1  LIG1        0.1902
     12 C           1.0603    6.3473   -0.5528 C.ar    1  LIG1        0.1144
     13 C           0.1121    7.4308   -0.5960 C.ar    1  LIG1        0.0719
     14 C          -1.0934    6.8418   -0.3506 C.ar    1  LIG1        0.1864
     15 O          -0.9502    5.5133   -0.1577 O.2     1  LIG1       -0.4461
     16 N           3.5927    6.4102   -1.0393 N.1     1  LIG1       -0.1907
     17 C           2.4669    6.4002   -0.8186 C.1     1  LIG1        0.1042
     18 S           0.4483    9.0964   -1.0762 S.3     1  LIG1       -0.1376
     19 H           0.4212    9.6173    0.1570 H       1  LIG1        0.1073
     20 C          -2.4396    7.3865   -0.2421 C.ar    1  LIG1        0.1892
     21 C          -2.9128    8.5184    0.3566 C.ar    1  LIG1        0.1136
     22 C          -4.3371    8.5306    0.1382 C.ar    1  LIG1        0.0607
     23 C          -4.5931    7.3986   -0.5633 C.ar    1  LIG1        0.1071
     24 O          -3.4516    6.7094   -0.7908 O.2     1  LIG1       -0.4573
     25 H          -5.4996    6.9705   -0.9524 H       1  LIG1        0.1041
     26 N          -1.4988   10.1768    1.7361 N.1     1  LIG1       -0.1907
     27 C          -2.1333    9.4474    1.1172 C.1     1  LIG1        0.1042
     28 S          -5.4133    9.7997    0.7179 S.3     1  LIG1       -0.1383
     29 H          -6.5370    9.1644    0.3688 H       1  LIG1        0.1072
@<TRIPOS>BOND
     1    18    13    1
     2    18    19    1
     3    16    17    3
     4    25    23    1
     5     6     1    1
     6    17    12    1
     7    24    23   ar
     8    24    20   ar
     9     5     1   ar
    10     5     4   ar
    11    13    12   ar
    12    13    14   ar
    13    23    22   ar
    14    12    11   ar
    15     1     2   ar
    16    14    20    1
    17    14    15   ar
    18    11    15   ar
    19    11     4    1
    20    20    21   ar
    21     4     3   ar
    22    22    21   ar
    23    22    28    1
    24     2     3   ar
    25     2     8    1
    26    21    27    1
    27    29    28    1
    28     3     9    1
    29    10     9    1
    30     8     7    3
    31    27    26    3
