@<TRIPOS>MOLECULE
mol_data/opt/m06hf/geoms/mol2/12dg12dg-12dg.out
 29 31 0 0 0
SMALL
GASTEIGER

@<TRIPOS>ATOM
      1 C           0.0529    1.8700    0.0002 C.ar    1  LIG1        0.1112
      2 C           1.4045    1.7381    0.0001 C.ar    1  LIG1        0.1033
      3 C           1.9593    3.0720   -0.0000 C.ar    1  LIG1        0.0712
      4 C           0.8679    3.8990   -0.0000 C.ar    1  LIG1        0.1854
      5 O          -0.2754    3.1555    0.0001 O.2     1  LIG1       -0.4573
      6 H          -0.7453    1.1480    0.0003 H       1  LIG1        0.1043
      7 N           2.7407   -0.4693    0.0001 N.1     1  LIG1       -0.1907
      8 C           2.1415    0.5084    0.0001 C.1     1  LIG1        0.1034
      9 S           3.7034    3.2680   -0.0002 S.3     1  LIG1       -0.1376
     10 H           3.7337    4.5997   -0.0002 H       1  LIG1        0.1073
     11 C           0.6049    5.3342   -0.0001 C.ar    1  LIG1        0.1902
     12 C           1.3379    6.4926   -0.0001 C.ar    1  LIG1        0.1144
     13 C           0.4045    7.5941   -0.0002 C.ar    1  LIG1        0.0719
     14 C          -0.8284    7.0070   -0.0002 C.ar    1  LIG1        0.1864
     15 O          -0.6901    5.6537   -0.0001 O.2     1  LIG1       -0.4461
     16 N           3.8866    6.8755    0.0000 N.1     1  LIG1       -0.1907
     17 C           2.7554    6.6757   -0.0000 C.1     1  LIG1        0.1042
     18 S           1.0192    9.2381   -0.0003 S.3     1  LIG1       -0.1376
     19 H          -0.1619    9.8578   -0.0004 H       1  LIG1        0.1073
     20 C          -2.2253    7.4319   -0.0002 C.ar    1  LIG1        0.1892
     21 C          -2.9173    8.6175   -0.0001 C.ar    1  LIG1        0.1136
     22 C          -4.3203    8.2785   -0.0003 C.ar    1  LIG1        0.0607
     23 C          -4.3591    6.9269   -0.0006 C.ar    1  LIG1        0.1071
     24 O          -3.1050    6.4234   -0.0005 O.2     1  LIG1       -0.4573
     25 H          -5.1652    6.2154   -0.0008 H       1  LIG1        0.1041
     26 N          -2.1077   11.0637    0.0006 N.1     1  LIG1       -0.1907
     27 C          -2.4359    9.9628    0.0003 C.1     1  LIG1        0.1042
     28 S          -5.6109    9.4788   -0.0002 S.3     1  LIG1       -0.1383
     29 H          -6.6012    8.5800   -0.0003 H       1  LIG1        0.1072
@<TRIPOS>BOND
     1    25    23    1
     2    23    24   ar
     3    23    22   ar
     4    24    20   ar
     5    19    18    1
     6    18    13    1
     7    22    28    1
     8    22    21   ar
     9    29    28    1
    10    20    14    1
    11    20    21   ar
    12    10     9    1
    13     9     3    1
    14    14    13   ar
    15    14    15   ar
    16    13    12   ar
    17    15    11   ar
    18    12    11   ar
    19    12    17    1
    20    21    27    1
    21    11     4    1
    22     3     4   ar
    23     3     2   ar
    24    17    16    3
    25     4     5   ar
    26     2     8    1
    27     2     1   ar
    28     8     7    3
    29     5     1   ar
    30     1     6    1
    31    27    26    3
