@<TRIPOS>MOLECULE
mol_data/opt/m06hf/geoms/mol2/12dg12dg-.out
 20 21 0 0 0
SMALL
GASTEIGER

@<TRIPOS>ATOM
      1 C           0.2683    1.8376   -0.5547 C.ar    1  LIG1        0.1112
      2 C           1.5148    1.8403   -0.0120 C.ar    1  LIG1        0.1033
      3 C           1.8057    3.2077    0.3494 C.ar    1  LIG1        0.0712
      4 C           0.6954    3.9046   -0.0206 C.ar    1  LIG1        0.1853
      5 O          -0.2254    3.0798   -0.5667 O.2     1  LIG1       -0.4573
      6 H          -0.3506    1.0534   -0.9540 H       1  LIG1        0.1043
      7 N           3.0290   -0.2223    0.3281 N.1     1  LIG1       -0.1907
      8 C           2.3593    0.6961    0.1762 C.1     1  LIG1        0.1034
      9 S           3.2266    3.7717    1.2356 S.3     1  LIG1       -0.1376
     10 H           3.8279    4.3663    0.1989 H       1  LIG1        0.1073
     11 C           0.3507    5.3175    0.0632 C.ar    1  LIG1        0.1892
     12 C           1.0768    6.4498   -0.1689 C.ar    1  LIG1        0.1136
     13 C           0.1963    7.5609    0.0918 C.ar    1  LIG1        0.0607
     14 C          -0.9846    6.9971    0.4447 C.ar    1  LIG1        0.1071
     15 O          -0.8930    5.6476    0.4239 O.2     1  LIG1       -0.4573
     16 H          -1.9369    7.4116    0.7235 H       1  LIG1        0.1041
     17 N           3.4968    6.5384   -1.0576 N.1     1  LIG1       -0.1907
     18 C           2.4223    6.5006   -0.6552 C.1     1  LIG1        0.1042
     19 S           0.6715    9.2528   -0.0545 S.3     1  LIG1       -0.1383
     20 H          -0.5742    9.7299    0.0078 H       1  LIG1        0.1072
@<TRIPOS>BOND
     1    17    18    3
     2     6     1    1
     3    18    12    1
     4     5     1   ar
     5     5     4   ar
     6     1     2   ar
     7    12    11   ar
     8    12    13   ar
     9    19    20    1
    10    19    13    1
    11     4    11    1
    12     4     3   ar
    13     2     8    1
    14     2     3   ar
    15    11    15   ar
    16    13    14   ar
    17     8     7    3
    18    10     9    1
    19     3     9    1
    20    15    14   ar
    21    14    16    1
