@<TRIPOS>MOLECULE
mol_data/opt/m06hf/geoms/mol2/12dg12dg12dg.out
 29 31 0 0 0
SMALL
GASTEIGER

@<TRIPOS>ATOM
      1 C           0.5626    1.6899    0.4581 C.ar    1  LIG1        0.1112
      2 C           1.6900    1.8536   -0.2839 C.ar    1  LIG1        0.1033
      3 C           1.8316    3.2723   -0.5119 C.ar    1  LIG1        0.0712
      4 C           0.7654    3.8296    0.1258 C.ar    1  LIG1        0.1854
      5 O           0.0045    2.8788    0.7100 O.2     1  LIG1       -0.4573
      6 H           0.0727    0.8175    0.8533 H       1  LIG1        0.1043
      7 N           3.2449   -0.0264   -1.1257 N.1     1  LIG1       -0.1907
      8 C           2.5554    0.8105   -0.7532 C.1     1  LIG1        0.1034
      9 S           3.0207    4.0680   -1.5457 S.3     1  LIG1       -0.1376
     10 H           3.8718    4.3938   -0.5664 H       1  LIG1        0.1073
     11 C           0.3455    5.2150    0.2857 C.ar    1  LIG1        0.1902
     12 C           1.0466    6.3494    0.5749 C.ar    1  LIG1        0.1144
     13 C           0.0949    7.4304    0.6006 C.ar    1  LIG1        0.0719
     14 C          -1.1034    6.8393    0.3269 C.ar    1  LIG1        0.1864
     15 O          -0.9526    5.5117    0.1331 O.2     1  LIG1       -0.4461
     16 N           3.5676    6.4172    1.1169 N.1     1  LIG1       -0.1907
     17 C           2.4468    6.4051    0.8717 C.1     1  LIG1        0.1042
     18 S           0.4162    9.0954    1.0932 S.3     1  LIG1       -0.1376
     19 H           0.4153    9.6199   -0.1387 H       1  LIG1        0.1073
     20 C          -2.4482    7.3810    0.1905 C.ar    1  LIG1        0.1892
     21 C          -2.9110    8.5138   -0.4147 C.ar    1  LIG1        0.1136
     22 C          -4.3398    8.5217   -0.2277 C.ar    1  LIG1        0.0607
     23 C          -4.6083    7.3868    0.4643 C.ar    1  LIG1        0.1071
     24 O          -3.4704    6.6996    0.7145 O.2     1  LIG1       -0.4573
     25 H          -5.5221    6.9553    0.8320 H       1  LIG1        0.1041
     26 N          -1.4711   10.1803   -1.7573 N.1     1  LIG1       -0.1907
     27 C          -2.1172    9.4472   -1.1549 C.1     1  LIG1        0.1042
     28 S          -5.4063    9.7901   -0.8268 S.3     1  LIG1       -0.1383
     29 H          -6.5355    9.1506   -0.5048 H       1  LIG1        0.1072
@<TRIPOS>BOND
     1    26    27    3
     2     9    10    1
     3     9     3    1
     4    27    21    1
     5     7     8    3
     6    28    29    1
     7    28    22    1
     8     8     2    1
     9     3     2   ar
    10     3     4   ar
    11    21    22   ar
    12    21    20   ar
    13     2     1   ar
    14    22    23   ar
    15    19    18    1
    16     4    11    1
    17     4     5   ar
    18    15    11   ar
    19    15    14   ar
    20    20    14    1
    21    20    24   ar
    22    11    12   ar
    23    14    13   ar
    24     1     5   ar
    25     1     6    1
    26    23    24   ar
    27    23    25    1
    28    12    13   ar
    29    12    17    1
    30    13    18    1
    31    17    16    3
