@<TRIPOS>MOLECULE
mol_data/opt/m06hf/geoms/mol2/12dg12dg12dg-12dg.out
 38 41 0 0 0
SMALL
GASTEIGER

@<TRIPOS>ATOM
      1 C           1.0302    2.2183    1.9268 C.ar    1  LIG1        0.1112
      2 C           1.9515    1.9546    0.9621 C.ar    1  LIG1        0.1033
      3 C           1.9500    3.0878    0.0673 C.ar    1  LIG1        0.0712
      4 C           1.0194    3.9346    0.5898 C.ar    1  LIG1        0.1854
      5 O           0.4703    3.4119    1.7078 O.2     1  LIG1       -0.4573
      6 H           0.6966    1.6642    2.7869 H       1  LIG1        0.1043
      7 N           3.3861   -0.1833    0.7851 N.1     1  LIG1       -0.1907
      8 C           2.7519    0.7689    0.8597 C.1     1  LIG1        0.1034
      9 S           2.8395    3.2215   -1.4524 S.3     1  LIG1       -0.1376
     10 H           3.7688    4.0755   -1.0058 H       1  LIG1        0.1073
     11 C           0.5429    5.2460    0.1733 C.ar    1  LIG1        0.1902
     12 C           1.1888    6.3484   -0.3081 C.ar    1  LIG1        0.1144
     13 C           0.1795    7.3463   -0.5573 C.ar    1  LIG1        0.0719
     14 C          -0.9887    6.7529   -0.1805 C.ar    1  LIG1        0.1864
     15 O          -0.7711    5.4953    0.2590 O.2     1  LIG1       -0.4461
     16 N           3.7459    6.5789   -0.5605 N.1     1  LIG1       -0.1907
     17 C           2.6064    6.4861   -0.4608 C.1     1  LIG1        0.1042
     18 S           0.4289    8.9126   -1.3355 S.3     1  LIG1       -0.1376
     19 H           0.3380    9.6486   -0.2194 H       1  LIG1        0.1073
     20 C          -2.3649    7.2288   -0.1587 C.ar    1  LIG1        0.1902
     21 C          -2.9144    8.4250    0.2010 C.ar    1  LIG1        0.1144
     22 C          -4.3359    8.3068   -0.0039 C.ar    1  LIG1        0.0719
     23 C          -4.5131    7.0311   -0.4519 C.ar    1  LIG1        0.1864
     24 O          -3.3315    6.3848   -0.5442 O.2     1  LIG1       -0.4461
     25 N          -1.6011   10.4074    1.1990 N.1     1  LIG1       -0.1907
     26 C          -2.1987    9.5389    0.7463 C.1     1  LIG1        0.1042
     27 S          -5.5224    9.6067    0.1341 S.3     1  LIG1       -0.1376
     28 H          -6.0135    9.2365    1.3230 H       1  LIG1        0.1073
     29 C          -5.7096    6.2792   -0.8059 C.ar    1  LIG1        0.1892
     30 C          -6.9374    6.1996   -0.2138 C.ar    1  LIG1        0.1136
     31 C          -7.7177    5.2907   -1.0140 C.ar    1  LIG1        0.0607
     32 C          -6.8848    4.8973   -2.0094 C.ar    1  LIG1        0.1071
     33 O          -5.6766    5.4912   -1.8834 O.2     1  LIG1       -0.4573
     34 H          -7.0075    4.2280   -2.8424 H       1  LIG1        0.1041
     35 N          -7.6023    7.3608    1.9918 N.1     1  LIG1       -0.1907
     36 C          -7.3170    6.8451    1.0066 C.1     1  LIG1        0.1042
     37 S          -9.3874    4.8484   -0.6597 S.3     1  LIG1       -0.1383
     38 H          -9.4725    3.9377   -1.6354 H       1  LIG1        0.1072
@<TRIPOS>BOND
     1    34    32    1
     2    32    33   ar
     3    32    31   ar
     4    33    29   ar
     5    38    37    1
     6     9    10    1
     7     9     3    1
     8    18    13    1
     9    18    19    1
    10    31    37    1
    11    31    30   ar
    12    29    23    1
    13    29    30   ar
    14    16    17    3
    15    13    12   ar
    16    13    14   ar
    17    24    23   ar
    18    24    20   ar
    19    17    12    1
    20    23    22   ar
    21    12    11   ar
    22    30    36    1
    23    14    20    1
    24    14    15   ar
    25    20    21   ar
    26    22    27    1
    27    22    21   ar
    28     3     4   ar
    29     3     2   ar
    30    27    28    1
    31    11    15   ar
    32    11     4    1
    33    21    26    1
    34     4     5   ar
    35    26    25    3
    36     7     8    3
    37     8     2    1
    38     2     1   ar
    39    36    35    3
    40     5     1   ar
    41     1     6    1
