@<TRIPOS>MOLECULE
mol_data/opt/m06hf/geoms/mol2/12dg12dg-12dg12dg.out
 38 41 0 0 0
SMALL
GASTEIGER

@<TRIPOS>ATOM
      1 C           1.0880    2.2357    1.9390 C.ar    1  LIG1        0.1112
      2 C           1.9870    1.9679    0.9545 C.ar    1  LIG1        0.1033
      3 C           1.9600    3.0942    0.0516 C.ar    1  LIG1        0.0712
      4 C           1.0391    3.9418    0.5898 C.ar    1  LIG1        0.1854
      5 O           0.5188    3.4257    1.7245 O.2     1  LIG1       -0.4573
      6 H           0.7770    1.6869    2.8109 H       1  LIG1        0.1043
      7 N           3.4242   -0.1665    0.7577 N.1     1  LIG1       -0.1907
      8 C           2.7888    0.7841    0.8413 C.1     1  LIG1        0.1034
      9 S           2.8125    3.2193   -1.4900 S.3     1  LIG1       -0.1376
     10 H           3.7496    4.0790   -1.0718 H       1  LIG1        0.1073
     11 C           0.5475    5.2476    0.1731 C.ar    1  LIG1        0.1902
     12 C           1.1771    6.3465   -0.3367 C.ar    1  LIG1        0.1144
     13 C           0.1574    7.3367   -0.5745 C.ar    1  LIG1        0.0719
     14 C          -0.9985    6.7437   -0.1623 C.ar    1  LIG1        0.1864
     15 O          -0.7657    5.4924    0.2865 O.2     1  LIG1       -0.4461
     16 N           3.7263    6.5873   -0.6512 N.1     1  LIG1       -0.1907
     17 C           2.5899    6.4890   -0.5246 C.1     1  LIG1        0.1042
     18 S           0.3696    8.8896   -1.3886 S.3     1  LIG1       -0.1376
     19 H           0.3933    9.6416   -0.2810 H       1  LIG1        0.1073
     20 C          -2.3744    7.2187   -0.1136 C.ar    1  LIG1        0.1902
     21 C          -2.9138    8.4181    0.2498 C.ar    1  LIG1        0.1144
     22 C          -4.3394    8.3009    0.0756 C.ar    1  LIG1        0.0719
     23 C          -4.5280    7.0227   -0.3608 C.ar    1  LIG1        0.1864
     24 O          -3.3498    6.3736   -0.4732 O.2     1  LIG1       -0.4461
     25 N          -1.5738   10.4070    1.1985 N.1     1  LIG1       -0.1907
     26 C          -2.1829    9.5353    0.7679 C.1     1  LIG1        0.1042
     27 S          -5.5213    9.6031    0.2299 S.3     1  LIG1       -0.1376
     28 H          -5.9894    9.2395    1.4300 H       1  LIG1        0.1073
     29 C          -5.7324    6.2719   -0.6896 C.ar    1  LIG1        0.1892
     30 C          -6.9502    6.1978   -0.0766 C.ar    1  LIG1        0.1136
     31 C          -7.7464    5.2882   -0.8602 C.ar    1  LIG1        0.0607
     32 C          -6.9315    4.8889   -1.8681 C.ar    1  LIG1        0.1071
     33 O          -5.7197    5.4797   -1.7645 O.2     1  LIG1       -0.4573
     34 H          -7.0702    4.2171   -2.6967 H       1  LIG1        0.1041
     35 N          -7.5743    7.3699    2.1352 N.1     1  LIG1       -0.1907
     36 C          -7.3072    6.8493    1.1475 C.1     1  LIG1        0.1042
     37 S          -9.4108    4.8516   -0.4763 S.3     1  LIG1       -0.1383
     38 H          -9.5132    3.9343   -1.4442 H       1  LIG1        0.1072
@<TRIPOS>BOND
     1    34    32    1
     2    32    33   ar
     3    32    31   ar
     4    33    29   ar
     5     9    10    1
     6     9     3    1
     7    38    37    1
     8    18    13    1
     9    18    19    1
    10    31    37    1
    11    31    30   ar
    12    29    23    1
    13    29    30   ar
    14    16    17    3
    15    13    12   ar
    16    13    14   ar
    17    17    12    1
    18    24    23   ar
    19    24    20   ar
    20    23    22   ar
    21    12    11   ar
    22    14    20    1
    23    14    15   ar
    24    20    21   ar
    25    30    36    1
    26     3     4   ar
    27     3     2   ar
    28    22    27    1
    29    22    21   ar
    30    11    15   ar
    31    11     4    1
    32    27    28    1
    33    21    26    1
    34     4     5   ar
    35     7     8    3
    36    26    25    3
    37     8     2    1
    38     2     1   ar
    39    36    35    3
    40     5     1   ar
    41     1     6    1
