@<TRIPOS>MOLECULE
mol_data/opt/m06hf/geoms/mol2/12dg12dg.out
 20 21 0 0 0
SMALL
GASTEIGER

@<TRIPOS>ATOM
      1 C           0.2613    1.8371    0.5451 C.ar    1  LIG1        0.1112
      2 C           1.5118    1.8398    0.0117 C.ar    1  LIG1        0.1033
      3 C           1.8068    3.2079   -0.3440 C.ar    1  LIG1        0.0712
      4 C           0.6943    3.9049    0.0196 C.ar    1  LIG1        0.1853
      5 O          -0.2315    3.0796    0.5560 O.2     1  LIG1       -0.4573
      6 H          -0.3612    1.0523    0.9377 H       1  LIG1        0.1043
      7 N           3.0269   -0.2232   -0.3220 N.1     1  LIG1       -0.1907
      8 C           2.3568    0.6953   -0.1731 C.1     1  LIG1        0.1034
      9 S           3.2346    3.7728   -1.2184 S.3     1  LIG1       -0.1376
     10 H           3.8296    4.3637   -0.1759 H       1  LIG1        0.1073
     11 C           0.3516    5.3184   -0.0632 C.ar    1  LIG1        0.1892
     12 C           1.0770    6.4494    0.1772 C.ar    1  LIG1        0.1136
     13 C           0.1996    7.5620   -0.0876 C.ar    1  LIG1        0.0607
     14 C          -0.9790    7.0001   -0.4512 C.ar    1  LIG1        0.1071
     15 O          -0.8887    5.6505   -0.4332 O.2     1  LIG1       -0.4573
     16 H          -1.9286    7.4162   -0.7366 H       1  LIG1        0.1041
     17 N           3.4901    6.5328    1.0852 N.1     1  LIG1       -0.1907
     18 C           2.4187    6.4971    0.6742 C.1     1  LIG1        0.1042
     19 S           0.6755    9.2529    0.0662 S.3     1  LIG1       -0.1383
     20 H          -0.5691    9.7318   -0.0044 H       1  LIG1        0.1072
@<TRIPOS>BOND
     1     9     3    1
     2     9    10    1
     3    16    14    1
     4    14    15   ar
     5    14    13   ar
     6    15    11   ar
     7     3     2   ar
     8     3     4   ar
     9     7     8    3
    10     8     2    1
    11    13    19    1
    12    13    12   ar
    13    11     4    1
    14    11    12   ar
    15    20    19    1
    16     2     1   ar
    17     4     5   ar
    18    12    18    1
    19     1     5   ar
    20     1     6    1
    21    18    17    3
