@<TRIPOS>MOLECULE
mol_data/opt/m06hf/geoms/mol2/12dg12dg-12dg-12dg-.out
 38 41 0 0 0
SMALL
GASTEIGER

@<TRIPOS>ATOM
      1 C           1.0538    2.2224    1.9256 C.ar    1  LIG1        0.1112
      2 C           1.9635    1.9569    0.9503 C.ar    1  LIG1        0.1033
      3 C           1.9509    3.0882    0.0533 C.ar    1  LIG1        0.0712
      4 C           1.0265    3.9359    0.5852 C.ar    1  LIG1        0.1854
      5 O           0.4911    3.4155    1.7108 O.2     1  LIG1       -0.4573
      6 H           0.7307    1.6700    2.7908 H       1  LIG1        0.1043
      7 N           3.3962   -0.1811    0.7606 N.1     1  LIG1       -0.1907
      8 C           2.7628    0.7711    0.8408 C.1     1  LIG1        0.1034
      9 S           2.8218    3.2188   -1.4775 S.3     1  LIG1       -0.1376
     10 H           3.7559    4.0743   -1.0443 H       1  LIG1        0.1073
     11 C           0.5449    5.2465    0.1719 C.ar    1  LIG1        0.1902
     12 C           1.1849    6.3479   -0.3195 C.ar    1  LIG1        0.1144
     13 C           0.1727    7.3454   -0.5583 C.ar    1  LIG1        0.0719
     14 C          -0.9909    6.7527   -0.1663 C.ar    1  LIG1        0.1864
     15 O          -0.7680    5.4960    0.2729 O.2     1  LIG1       -0.4461
     16 N           3.7388    6.5779   -0.6031 N.1     1  LIG1       -0.1907
     17 C           2.6006    6.4853   -0.4895 C.1     1  LIG1        0.1042
     18 S           0.4128    8.9102   -1.3424 S.3     1  LIG1       -0.1376
     19 H           0.3347    9.6483   -0.2266 H       1  LIG1        0.1073
     20 C          -2.3668    7.2286   -0.1289 C.ar    1  LIG1        0.1902
     21 C          -2.9119    8.4254    0.2351 C.ar    1  LIG1        0.1144
     22 C          -4.3358    8.3069    0.0476 C.ar    1  LIG1        0.0719
     23 C          -4.5183    7.0302   -0.3958 C.ar    1  LIG1        0.1864
     24 O          -3.3378    6.3838   -0.5010 O.2     1  LIG1       -0.4461
     25 N          -1.5868   10.4098    1.2135 N.1     1  LIG1       -0.1907
     26 C          -2.1898    9.5405    0.7695 C.1     1  LIG1        0.1042
     27 S          -5.5206    9.6069    0.1973 S.3     1  LIG1       -0.1376
     28 H          -5.9973    9.2388    1.3927 H       1  LIG1        0.1073
     29 C          -5.7190    6.2776   -0.7338 C.ar    1  LIG1        0.1892
     30 C          -6.9395    6.1991   -0.1267 C.ar    1  LIG1        0.1136
     31 C          -7.7294    5.2886   -0.9156 C.ar    1  LIG1        0.0607
     32 C          -6.9086    4.8932   -1.9202 C.ar    1  LIG1        0.1071
     33 O          -5.6990    5.4875   -1.8100 O.2     1  LIG1       -0.4573
     34 H          -7.0413    4.2223   -2.7503 H       1  LIG1        0.1041
     35 N          -7.5776    7.3646    2.0846 N.1     1  LIG1       -0.1907
     36 C          -7.3042    6.8470    1.0971 C.1     1  LIG1        0.1042
     37 S          -9.3945    4.8469   -0.5401 S.3     1  LIG1       -0.1383
     38 H          -9.4914    3.9341   -1.5128 H       1  LIG1        0.1072
@<TRIPOS>BOND
     1    34    32    1
     2    32    33   ar
     3    32    31   ar
     4    33    29   ar
     5    38    37    1
     6     9    10    1
     7     9     3    1
     8    18    13    1
     9    18    19    1
    10    31    37    1
    11    31    30   ar
    12    29    23    1
    13    29    30   ar
    14    16    17    3
    15    13    12   ar
    16    13    14   ar
    17    24    23   ar
    18    24    20   ar
    19    17    12    1
    20    23    22   ar
    21    12    11   ar
    22    14    20    1
    23    14    15   ar
    24    20    21   ar
    25    30    36    1
    26    22    27    1
    27    22    21   ar
    28     3     4   ar
    29     3     2   ar
    30    11    15   ar
    31    11     4    1
    32    27    28    1
    33    21    26    1
    34     4     5   ar
    35     7     8    3
    36    26    25    3
    37     8     2    1
    38     2     1   ar
    39    36    35    3
    40     5     1   ar
    41     1     6    1
