@<TRIPOS>MOLECULE
mol_data/opt/m06hf/geoms/mol2/12dg.out
 11 11 0 0 0
SMALL
GASTEIGER

@<TRIPOS>ATOM
      1 C           0.1046    1.8726   -0.0001 C.ar    1  LIG1        0.1101
      2 C           1.4637    1.8735    0.0000 C.ar    1  LIG1        0.1025
      3 C           1.8698    3.2603   -0.0000 C.ar    1  LIG1        0.0600
      4 C           0.7138    3.9649   -0.0001 C.ar    1  LIG1        0.1061
      5 O          -0.3505    3.1259   -0.0001 O.2     1  LIG1       -0.4686
      6 H          -0.6183    1.0759   -0.0001 H       1  LIG1        0.1043
      7 H           0.5001    5.0188   -0.0001 H       1  LIG1        0.1041
      8 N           3.0129   -0.1905    0.0002 N.1     1  LIG1       -0.1907
      9 C           2.3182    0.7223    0.0001 C.1     1  LIG1        0.1034
     10 S           3.5499    3.7944    0.0000 S.3     1  LIG1       -0.1384
     11 H           3.2587    5.1001   -0.0000 H       1  LIG1        0.1072
@<TRIPOS>BOND
     1     7     4    1
     2     4     5   ar
     3     4     3   ar
     4     5     1   ar
     5     6     1    1
     6     1     2   ar
     7     3    10    1
     8     3     2   ar
     9    11    10    1
    10     2     9    1
    11     9     8    3
