@<TRIPOS>MOLECULE
mol_data/opt/m06hf/geoms/mol2/12dg12dg12dg-.out
 29 31 0 0 0
SMALL
GASTEIGER

@<TRIPOS>ATOM
      1 C           0.5513    1.9134    1.1205 C.ar    1  LIG1        0.1112
      2 C           1.6537    1.8276    0.3302 C.ar    1  LIG1        0.1033
      3 C           1.8229    3.1220   -0.2873 C.ar    1  LIG1        0.0712
      4 C           0.7959    3.8714    0.2030 C.ar    1  LIG1        0.1854
      5 O           0.0352    3.1441    1.0511 O.2     1  LIG1       -0.4573
      6 H           0.0540    1.2010    1.7554 H       1  LIG1        0.1043
      7 N           3.1201   -0.2703   -0.0036 N.1     1  LIG1       -0.1907
      8 C           2.4722    0.6645    0.1427 C.1     1  LIG1        0.1034
      9 S           3.0091    3.5323   -1.5302 S.3     1  LIG1       -0.1376
     10 H           3.7950    4.2808   -0.7442 H       1  LIG1        0.1073
     11 C           0.4032    5.2577   -0.0050 C.ar    1  LIG1        0.1902
     12 C           1.1250    6.4118   -0.1035 C.ar    1  LIG1        0.1144
     13 C           0.1778    7.4784   -0.3070 C.ar    1  LIG1        0.0719
     14 C          -1.0393    6.8643   -0.2929 C.ar    1  LIG1        0.1864
     15 O          -0.9041    5.5330   -0.1116 O.2     1  LIG1       -0.4461
     16 N           3.6806    6.5917    0.1930 N.1     1  LIG1       -0.1907
     17 C           2.5441    6.5245    0.0491 C.1     1  LIG1        0.1042
     18 S           0.5626    9.1691   -0.6425 S.3     1  LIG1       -0.1376
     19 H           0.2721    9.6277    0.5807 H       1  LIG1        0.1073
     20 C          -2.3939    7.3877   -0.4049 C.ar    1  LIG1        0.1892
     21 C          -2.9835    8.4900    0.1431 C.ar    1  LIG1        0.1136
     22 C          -4.3443    8.5038   -0.3302 C.ar    1  LIG1        0.0607
     23 C          -4.4536    7.4018   -1.1119 C.ar    1  LIG1        0.1071
     24 O          -3.2830    6.7262   -1.1514 O.2     1  LIG1       -0.4573
     25 H          -5.2696    6.9862   -1.6763 H       1  LIG1        0.1041
     26 N          -1.8610   10.0897    1.8270 N.1     1  LIG1       -0.1907
     27 C          -2.3671    9.3879    1.0724 C.1     1  LIG1        0.1042
     28 S          -5.5185    9.7516    0.0866 S.3     1  LIG1       -0.1383
     29 H          -6.5907    9.0276   -0.2484 H       1  LIG1        0.1072
@<TRIPOS>BOND
     1    25    23    1
     2     9    10    1
     3     9     3    1
     4    24    23   ar
     5    24    20   ar
     6    23    22   ar
     7    18    13    1
     8    18    19    1
     9    20    14    1
    10    20    21   ar
    11    22    28    1
    12    22    21   ar
    13    13    14   ar
    14    13    12   ar
    15    14    15   ar
    16     3     4   ar
    17     3     2   ar
    18    29    28    1
    19    15    11   ar
    20    12    11   ar
    21    12    17    1
    22    11     4    1
    23     7     8    3
    24    17    16    3
    25     8     2    1
    26    21    27    1
    27     4     5   ar
    28     2     1   ar
    29     5     1   ar
    30    27    26    3
    31     1     6    1
