@<TRIPOS>MOLECULE
mol_data/opt/m06hf/geoms/mol2/12dh12dh12dh12dh-.out
 42 45 0 0 0
SMALL
GASTEIGER

@<TRIPOS>ATOM
      1 C           0.2282    1.8104   -0.5166 C.ar    1  LIG1        0.1119
      2 C           1.5422    1.7695   -0.1585 C.ar    1  LIG1        0.1107
      3 C           1.9736    3.1396    0.0199 C.ar    1  LIG1        0.0917
      4 C           0.8534    3.8873   -0.2656 C.ar    1  LIG1        0.1928
      5 O          -0.1892    3.0604   -0.5875 O.2     1  LIG1       -0.4566
      6 H          -0.4847    1.0349   -0.7391 H       1  LIG1        0.1043
      7 N           3.1068   -0.2489    0.1857 N.1     1  LIG1       -0.1907
      8 C           2.3803    0.6256    0.0266 C.1     1  LIG1        0.1042
      9 N           3.2127    3.4894    0.4501 N.pl3   1  LIG1       -0.3540
     10 H           3.9044    2.7570    0.4957 H       1  LIG1        0.1425
     11 H           3.5621    4.4257    0.3136 H       1  LIG1        0.1425
     12 C           0.5384    5.2904   -0.2206 C.ar    1  LIG1        0.1917
     13 C           1.2968    6.4376   -0.1610 C.ar    1  LIG1        0.1219
     14 C           0.3801    7.5528   -0.0922 C.ar    1  LIG1        0.0925
     15 C          -0.8691    6.9762   -0.1408 C.ar    1  LIG1        0.1939
     16 O          -0.7466    5.6107   -0.2128 O.2     1  LIG1       -0.4453
     17 N           3.8576    6.6660   -0.2790 N.1     1  LIG1       -0.1907
     18 C           2.7142    6.5531   -0.2228 C.1     1  LIG1        0.1050
     19 N           0.7788    8.8417    0.0337 N.pl3   1  LIG1       -0.3539
     20 H           1.7587    9.0438   -0.0852 H       1  LIG1        0.1425
     21 H           0.1355    9.6057   -0.1031 H       1  LIG1        0.1425
     22 C          -2.2232    7.4535   -0.1076 C.ar    1  LIG1        0.1918
     23 C          -2.8168    8.6982   -0.1345 C.ar    1  LIG1        0.1219
     24 C          -4.2425    8.4846   -0.0589 C.ar    1  LIG1        0.0925
     25 C          -4.3886    7.1274   -0.0019 C.ar    1  LIG1        0.1938
     26 O          -3.1673    6.5185   -0.0258 O.2     1  LIG1       -0.4453
     27 N          -1.6940   11.0010   -0.3896 N.1     1  LIG1       -0.1907
     28 C          -2.1866    9.9683   -0.2680 C.1     1  LIG1        0.1050
     29 N          -5.1948    9.4654   -0.0037 N.pl3   1  LIG1       -0.3539
     30 H          -4.9451   10.3625   -0.3923 H       1  LIG1        0.1425
     31 H          -6.1485    9.1720   -0.1540 H       1  LIG1        0.1425
     32 C          -5.5512    6.2875    0.0429 C.ar    1  LIG1        0.1907
     33 C          -5.7141    4.9298    0.0301 C.ar    1  LIG1        0.1211
     34 C          -7.1425    4.6914    0.0747 C.ar    1  LIG1        0.0812
     35 C          -7.7152    5.9184    0.1085 C.ar    1  LIG1        0.1146
     36 O          -6.7442    6.8893    0.0898 O.2     1  LIG1       -0.4565
     37 H          -8.7339    6.2537    0.1605 H       1  LIG1        0.1049
     38 N          -3.9595    3.0495   -0.1328 N.1     1  LIG1       -0.1907
     39 C          -4.7112    3.9145   -0.0509 C.1     1  LIG1        0.1049
     40 N          -7.7197    3.4301    0.1376 N.pl3   1  LIG1       -0.3545
     41 H          -8.6673    3.3777   -0.2076 H       1  LIG1        0.1424
     42 H          -7.1342    2.6945   -0.2353 H       1  LIG1        0.1424
@<TRIPOS>BOND
     1     6     1    1
     2     5     1   ar
     3     5     4   ar
     4     1     2   ar
     5    30    29    1
     6    27    28    3
     7    17    18    3
     8    28    23    1
     9     4    12    1
    10     4     3   ar
    11    42    40    1
    12    18    13    1
    13    12    16   ar
    14    12    13   ar
    15    16    15   ar
    16    41    40    1
    17    13    14   ar
    18     2     3   ar
    19     2     8    1
    20    31    29    1
    21    15    22    1
    22    15    14   ar
    23    23    22   ar
    24    23    24   ar
    25    38    39    3
    26    22    26   ar
    27    21    19    1
    28    14    19    1
    29    20    19    1
    30    24    29    1
    31    24    25   ar
    32    39    33    1
    33    26    25   ar
    34    25    32    1
    35     3     9    1
    36     8     7    3
    37    33    32   ar
    38    33    34   ar
    39    32    36   ar
    40    34    35   ar
    41    34    40    1
    42    36    35   ar
    43    35    37    1
    44    11     9    1
    45     9    10    1
