@<TRIPOS>MOLECULE
mol_data/opt/m06hf/geoms/mol2/12dh12dh-.out
 22 23 0 0 0
SMALL
GASTEIGER

@<TRIPOS>ATOM
      1 C           0.1563    1.7958    0.0050 C.ar    1  LIG1        0.1119
      2 C           1.5184    1.7887   -0.0211 C.ar    1  LIG1        0.1107
      3 C           1.9413    3.1706   -0.0369 C.ar    1  LIG1        0.0917
      4 C           0.7741    3.8847   -0.0216 C.ar    1  LIG1        0.1928
      5 O          -0.2982    3.0427    0.0065 O.2     1  LIG1       -0.4566
      6 H          -0.5670    0.9994    0.0231 H       1  LIG1        0.1043
      7 N           3.1404   -0.2153   -0.0610 N.1     1  LIG1       -0.1907
      8 C           2.3950    0.6574   -0.0387 C.1     1  LIG1        0.1042
      9 N           3.2352    3.6110   -0.0105 N.pl3   1  LIG1       -0.3540
     10 H           3.9420    2.9631   -0.3237 H       1  LIG1        0.1425
     11 H           3.3881    4.5833   -0.2312 H       1  LIG1        0.1425
     12 C           0.5405    5.3041   -0.0389 C.ar    1  LIG1        0.1907
     13 C          -0.5901    6.0720   -0.0220 C.ar    1  LIG1        0.1211
     14 C          -0.1487    7.4512   -0.0702 C.ar    1  LIG1        0.0812
     15 C           1.2040    7.3978   -0.1123 C.ar    1  LIG1        0.1146
     16 O           1.6209    6.0906   -0.0925 O.2     1  LIG1       -0.4565
     17 H           1.9700    8.1496   -0.1424 H       1  LIG1        0.1049
     18 N          -3.0680    5.3710    0.0338 N.1     1  LIG1       -0.1907
     19 C          -1.9530    5.6458    0.0153 C.1     1  LIG1        0.1049
     20 N          -1.0025    8.5443   -0.0087 N.pl3   1  LIG1       -0.3545
     21 H          -0.6301    9.3957   -0.4044 H       1  LIG1        0.1424
     22 H          -1.9400    8.3492   -0.3345 H       1  LIG1        0.1424
@<TRIPOS>BOND
     1    21    20    1
     2    22    20    1
     3    10     9    1
     4    11     9    1
     5    17    15    1
     6    15    16   ar
     7    15    14   ar
     8    16    12   ar
     9    14    13   ar
    10    14    20    1
    11     7     8    3
    12    12    13   ar
    13    12     4    1
    14     8     2    1
    15     3     4   ar
    16     3     2   ar
    17     3     9    1
    18    13    19    1
    19     4     5   ar
    20     2     1   ar
    21     1     5   ar
    22     1     6    1
    23    19    18    3
