@<TRIPOS>MOLECULE
mol_data/opt/m06hf/geoms/mol2/12dh12dh12dh12dh.out
 42 45 0 0 0
SMALL
GASTEIGER

@<TRIPOS>ATOM
      1 C           0.6309    1.8357   -1.2113 C.ar    1  LIG1        0.1119
      2 C           1.8375    1.8008   -0.5838 C.ar    1  LIG1        0.1107
      3 C           2.0970    3.1376   -0.0927 C.ar    1  LIG1        0.0917
      4 C           0.9991    3.8640   -0.4917 C.ar    1  LIG1        0.1928
      5 O           0.1224    3.0562   -1.1669 O.2     1  LIG1       -0.4566
      6 H           0.0613    1.0729   -1.7133 H       1  LIG1        0.1043
      7 N           3.4631   -0.1719   -0.2525 N.1     1  LIG1       -0.1907
      8 C           2.7160    0.6845   -0.4141 C.1     1  LIG1        0.1042
      9 N           3.1808    3.4694    0.6589 N.pl3   1  LIG1       -0.3540
     10 H           3.9106    2.7758    0.7265 H       1  LIG1        0.1425
     11 H           3.4860    4.4298    0.7121 H       1  LIG1        0.1425
     12 C           0.5828    5.2287   -0.2898 C.ar    1  LIG1        0.1917
     13 C           1.2735    6.3785    0.0082 C.ar    1  LIG1        0.1219
     14 C           0.3030    7.4413    0.1308 C.ar    1  LIG1        0.0925
     15 C          -0.9022    6.8381   -0.1374 C.ar    1  LIG1        0.1939
     16 O          -0.7130    5.5002   -0.3812 O.2     1  LIG1       -0.4453
     17 N           3.8239    6.6751    0.1955 N.1     1  LIG1       -0.1907
     18 C           2.6851    6.5385    0.1100 C.1     1  LIG1        0.1050
     19 N           0.6151    8.7126    0.5035 N.pl3   1  LIG1       -0.3539
     20 H           1.5964    8.9453    0.5356 H       1  LIG1        0.1425
     21 H          -0.0009    9.4725    0.2568 H       1  LIG1        0.1425
     22 C          -2.2655    7.3020   -0.1470 C.ar    1  LIG1        0.1918
     23 C          -2.8256    8.5478   -0.2967 C.ar    1  LIG1        0.1219
     24 C          -4.2560    8.3922   -0.1675 C.ar    1  LIG1        0.0925
     25 C          -4.4388    7.0464    0.0211 C.ar    1  LIG1        0.1938
     26 O          -3.2270    6.4038    0.0365 O.2     1  LIG1       -0.4453
     27 N          -1.6066   10.7521   -0.8291 N.1     1  LIG1       -0.1907
     28 C          -2.1503    9.7662   -0.5934 C.1     1  LIG1        0.1050
     29 N          -5.1432    9.4331   -0.1715 N.pl3   1  LIG1       -0.3539
     30 H          -4.7713   10.3206   -0.4777 H       1  LIG1        0.1425
     31 H          -6.0907    9.2578   -0.4751 H       1  LIG1        0.1425
     32 C          -5.6069    6.2271    0.2468 C.ar    1  LIG1        0.1907
     33 C          -6.9252    6.3757   -0.1019 C.ar    1  LIG1        0.1211
     34 C          -7.6323    5.2419    0.4491 C.ar    1  LIG1        0.0812
     35 C          -6.6789    4.5000    1.0642 C.ar    1  LIG1        0.1146
     36 O          -5.4613    5.1052    0.9493 O.2     1  LIG1       -0.4565
     37 H          -6.7072    3.5720    1.6041 H       1  LIG1        0.1049
     38 N          -7.8962    8.2576   -1.5686 N.1     1  LIG1       -0.1907
     39 C          -7.4736    7.4116   -0.9136 C.1     1  LIG1        0.1049
     40 N          -9.0100    5.0601    0.3750 N.pl3   1  LIG1       -0.3545
     41 H          -9.4182    5.3830   -0.4929 H       1  LIG1        0.1424
     42 H          -9.3177    4.1258    0.6076 H       1  LIG1        0.1424
@<TRIPOS>BOND
     1     6     1    1
     2    38    39    3
     3     1     5   ar
     4     1     2   ar
     5     5     4   ar
     6    39    33    1
     7    27    28    3
     8    28    23    1
     9     2     8    1
    10     2     3   ar
    11    41    40    1
    12     4    12    1
    13     4     3   ar
    14    30    29    1
    15    31    29    1
    16     8     7    3
    17    16    12   ar
    18    16    15   ar
    19    23    24   ar
    20    23    22   ar
    21    12    13   ar
    22    29    24    1
    23    24    25   ar
    24    22    15    1
    25    22    26   ar
    26    15    14   ar
    27    33    32   ar
    28    33    34   ar
    29     3     9    1
    30    13    18    1
    31    13    14   ar
    32    25    26   ar
    33    25    32    1
    34    18    17    3
    35    14    19    1
    36    32    36   ar
    37    21    19    1
    38    40    34    1
    39    40    42    1
    40    34    35   ar
    41    19    20    1
    42     9    11    1
    43     9    10    1
    44    36    35   ar
    45    35    37    1
