@<TRIPOS>MOLECULE
mol_data/opt/m06hf/geoms/mol2/12dh12dh12dh.out
 32 34 0 0 0
SMALL
GASTEIGER

@<TRIPOS>ATOM
      1 C           0.3253    1.7583   -0.6956 C.ar    1  LIG1        0.1119
      2 C           1.6069    1.7579   -0.2395 C.ar    1  LIG1        0.1107
      3 C           1.9559    3.1343    0.0422 C.ar    1  LIG1        0.0917
      4 C           0.8262    3.8446   -0.2885 C.ar    1  LIG1        0.1928
      5 O          -0.1506    2.9927   -0.7316 O.2     1  LIG1       -0.4566
      6 H          -0.3222    0.9611   -1.0178 H       1  LIG1        0.1043
      7 N           3.2188   -0.2231    0.1092 N.1     1  LIG1       -0.1907
      8 C           2.4782    0.6382   -0.0542 C.1     1  LIG1        0.1042
      9 N           3.1404    3.5182    0.5934 N.pl3   1  LIG1       -0.3540
     10 H           3.8598    2.8117    0.6441 H       1  LIG1        0.1425
     11 H           3.4728    4.4621    0.4639 H       1  LIG1        0.1425
     12 C           0.4640    5.2384   -0.2069 C.ar    1  LIG1        0.1917
     13 C           1.2020    6.3955   -0.1536 C.ar    1  LIG1        0.1219
     14 C           0.2686    7.4925   -0.0340 C.ar    1  LIG1        0.0925
     15 C          -0.9657    6.8963   -0.0541 C.ar    1  LIG1        0.1938
     16 O          -0.8296    5.5352   -0.1555 O.2     1  LIG1       -0.4453
     17 N           3.7600    6.6279   -0.3403 N.1     1  LIG1       -0.1907
     18 C           2.6174    6.5218   -0.2591 C.1     1  LIG1        0.1050
     19 N           0.6379    8.7983    0.1339 N.pl3   1  LIG1       -0.3539
     20 H           1.6141    9.0009   -0.0248 H       1  LIG1        0.1425
     21 H           0.0077    9.5237   -0.1781 H       1  LIG1        0.1425
     22 C          -2.3153    7.3974    0.0624 C.ar    1  LIG1        0.1907
     23 C          -2.8848    8.6153   -0.2085 C.ar    1  LIG1        0.1211
     24 C          -4.2797    8.5135    0.1570 C.ar    1  LIG1        0.0812
     25 C          -4.4341    7.2414    0.5989 C.ar    1  LIG1        0.1146
     26 O          -3.2435    6.5763    0.5499 O.2     1  LIG1       -0.4565
     27 H          -5.2792    6.6931    0.9710 H       1  LIG1        0.1049
     28 N          -1.7244   10.6507   -1.2799 N.1     1  LIG1       -0.1907
     29 C          -2.2460    9.7434   -0.8024 C.1     1  LIG1        0.1049
     30 N          -5.1884    9.5655    0.0962 N.pl3   1  LIG1       -0.3545
     31 H          -5.0274   10.1981   -0.6773 H       1  LIG1        0.1424
     32 H          -6.1565    9.2803    0.1476 H       1  LIG1        0.1424
@<TRIPOS>BOND
     1    28    29    3
     2     6     1    1
     3    29    23    1
     4     5     1   ar
     5     5     4   ar
     6     1     2   ar
     7    31    30    1
     8    17    18    3
     9     4    12    1
    10     4     3   ar
    11    18    13    1
    12     2     8    1
    13     2     3   ar
    14    23    22   ar
    15    23    24   ar
    16    12    16   ar
    17    12    13   ar
    18    21    19    1
    19    16    15   ar
    20    13    14   ar
    21     8     7    3
    22    15    14   ar
    23    15    22    1
    24    14    19    1
    25    20    19    1
    26     3     9    1
    27    22    26   ar
    28    30    32    1
    29    30    24    1
    30    24    25   ar
    31    11     9    1
    32    26    25   ar
    33     9    10    1
    34    25    27    1
