@<TRIPOS>MOLECULE
mol_data/opt/m06hf/geoms/mol2/12dh12dh-4dh12dh.out
 45 48 0 0 0
SMALL
GASTEIGER

@<TRIPOS>ATOM
      1 C          -0.0007    1.7059    0.2275 C.ar    1  LIG1        0.1119
      2 C           1.3595    1.6471    0.2505 C.ar    1  LIG1        0.1107
      3 C           1.8428    3.0080    0.1381 C.ar    1  LIG1        0.0917
      4 C           0.6972    3.7635    0.0627 C.ar    1  LIG1        0.1928
      5 O          -0.4097    2.9618    0.1159 O.2     1  LIG1       -0.4566
      6 H          -0.7534    0.9386    0.2843 H       1  LIG1        0.1043
      7 N           2.8962   -0.4149    0.4286 N.1     1  LIG1       -0.1907
      8 C           2.1883    0.4852    0.3531 C.1     1  LIG1        0.1042
      9 N           3.1437    3.3837    0.1520 N.pl3   1  LIG1       -0.3540
     10 H           3.8314    2.6612    0.0014 H       1  LIG1        0.1425
     11 H           3.3991    4.3057   -0.1786 H       1  LIG1        0.1425
     12 C           0.4948    5.1732   -0.0758 C.ar    1  LIG1        0.1916
     13 C          -0.6297    5.9388   -0.2566 C.ar    1  LIG1        0.1218
     14 C          -0.1803    7.3042   -0.3440 C.ar    1  LIG1        0.0894
     15 C           1.1772    7.2621   -0.1996 C.ar    1  LIG1        0.1590
     16 O           1.5739    5.9570   -0.0449 O.2     1  LIG1       -0.4484
     17 N          -3.0991    5.2634   -0.5275 N.1     1  LIG1       -0.1907
     18 C          -1.9871    5.5187   -0.3941 C.1     1  LIG1        0.1050
     19 N          -1.0072    8.4049   -0.5273 N.pl3   1  LIG1       -0.3540
     20 H          -0.6210    9.1063   -1.1487 H       1  LIG1        0.1425
     21 H          -1.9521    8.1499   -0.7900 H       1  LIG1        0.1425
     22 C           3.5224    8.1132   -0.5430 C.ar    1  LIG1        0.0633
     23 C           4.4173    9.1762   -0.5148 C.ar    1  LIG1       -0.0312
     24 C           2.1756    8.3240   -0.1772 C.ar    1  LIG1        0.0383
     25 C           4.0227   10.4558   -0.1354 C.ar    1  LIG1        0.0405
     26 H           5.4430    8.9976   -0.8106 H       1  LIG1        0.0638
     27 C           1.7780    9.5964    0.2099 C.ar    1  LIG1       -0.0284
     28 C           2.6703   10.6847    0.2333 C.ar    1  LIG1        0.0361
     29 H           0.7579    9.7481    0.5430 H       1  LIG1        0.0644
     30 N           4.4036    5.8166   -1.3560 N.1     1  LIG1       -0.1908
     31 C           3.9997    6.8284   -0.9915 C.1     1  LIG1        0.0999
     32 N           2.2265   11.8993    0.6355 N.pl3   1  LIG1       -0.3574
     33 H           2.8215   12.7088    0.5877 H       1  LIG1        0.1423
     34 H           1.2689   12.0136    0.9188 H       1  LIG1        0.1423
     35 C           5.0322   11.5195   -0.0896 C.ar    1  LIG1        0.1557
     36 C           6.3847   11.4926    0.1193 C.ar    1  LIG1        0.1180
     37 C           6.8650   12.8525    0.0109 C.ar    1  LIG1        0.0811
     38 C           5.7625   13.5974   -0.2426 C.ar    1  LIG1        0.1145
     39 O           4.6585   12.7905   -0.3024 O.2     1  LIG1       -0.4597
     40 H           5.6018   14.6489   -0.3898 H       1  LIG1        0.1049
     41 N           7.9136    9.4756    0.6095 N.1     1  LIG1       -0.1907
     42 C           7.2110   10.3605    0.4034 C.1     1  LIG1        0.1048
     43 N           8.1813   13.2357    0.2210 N.pl3   1  LIG1       -0.3545
     44 H           8.8572   12.5068    0.0335 H       1  LIG1        0.1424
     45 H           8.4416   14.1169   -0.1979 H       1  LIG1        0.1424
@<TRIPOS>BOND
     1    30    31    3
     2    20    19    1
     3    31    22    1
     4    26    23    1
     5    21    19    1
     6    22    23   ar
     7    22    24   ar
     8    17    18    3
     9    19    14    1
    10    23    25   ar
    11    18    13    1
    12    40    38    1
    13    14    13   ar
    14    14    15   ar
    15    39    38   ar
    16    39    35   ar
    17    13    12   ar
    18    38    37   ar
    19    15    24    1
    20    15    16   ar
    21    45    43    1
    22    11     9    1
    23    24    27   ar
    24    25    35    1
    25    25    28   ar
    26    35    36   ar
    27    12    16   ar
    28    12     4    1
    29    10     9    1
    30    37    36   ar
    31    37    43    1
    32    44    43    1
    33     4     5   ar
    34     4     3   ar
    35     5     1   ar
    36    36    42    1
    37     3     9    1
    38     3     2   ar
    39    27    28   ar
    40    27    29    1
    41     1     2   ar
    42     1     6    1
    43    28    32    1
    44     2     8    1
    45     8     7    3
    46    42    41    3
    47    33    32    1
    48    32    34    1
