@<TRIPOS>MOLECULE
mol_data/opt/m06hf/geoms/mol2/12dh12dh12dh-12dh.out
 42 45 0 0 0
SMALL
GASTEIGER

@<TRIPOS>ATOM
      1 C           0.3458    1.7030   -0.4489 C.ar    1  LIG1        0.1119
      2 C           1.6529    1.7380   -0.0706 C.ar    1  LIG1        0.1107
      3 C           2.0113    3.1321    0.0817 C.ar    1  LIG1        0.0917
      4 C           0.8591    3.8149   -0.2355 C.ar    1  LIG1        0.1928
      5 O          -0.1365    2.9293   -0.5528 O.2     1  LIG1       -0.4566
      6 H          -0.3176    0.8841   -0.6683 H       1  LIG1        0.1043
      7 N           3.3051   -0.1964    0.3422 N.1     1  LIG1       -0.1907
      8 C           2.5432    0.6406    0.1517 C.1     1  LIG1        0.1042
      9 N           3.2243    3.5556    0.5241 N.pl3   1  LIG1       -0.3540
     10 H           3.9479    2.8566    0.6004 H       1  LIG1        0.1425
     11 H           3.5398    4.4939    0.3297 H       1  LIG1        0.1425
     12 C           0.4880    5.2058   -0.2375 C.ar    1  LIG1        0.1917
     13 C           1.2181    6.3718   -0.2918 C.ar    1  LIG1        0.1219
     14 C           0.2776    7.4671   -0.2256 C.ar    1  LIG1        0.0925
     15 C          -0.9524    6.8520   -0.1530 C.ar    1  LIG1        0.1939
     16 O          -0.8077    5.4893   -0.1567 O.2     1  LIG1       -0.4453
     17 N           3.7622    6.6118   -0.6026 N.1     1  LIG1       -0.1907
     18 C           2.6255    6.5012   -0.4655 C.1     1  LIG1        0.1050
     19 N           0.5907    8.7742   -0.2573 N.pl3   1  LIG1       -0.3539
     20 H           1.5549    9.0602   -0.2880 H       1  LIG1        0.1425
     21 H          -0.1167    9.4913   -0.1879 H       1  LIG1        0.1425
     22 C          -2.2631    7.4043   -0.0804 C.ar    1  LIG1        0.1918
     23 C          -3.5202    6.8520   -0.0057 C.ar    1  LIG1        0.1219
     24 C          -4.4514    7.9543    0.0465 C.ar    1  LIG1        0.0925
     25 C          -3.6774    9.0827   -0.0041 C.ar    1  LIG1        0.1938
     26 O          -2.3484    8.7391   -0.0779 O.2     1  LIG1       -0.4453
     27 N          -4.2822    4.3940    0.0246 N.1     1  LIG1       -0.1907
     28 C          -3.8968    5.4763    0.0118 C.1     1  LIG1        0.1050
     29 N          -5.8006    7.8407    0.1694 N.pl3   1  LIG1       -0.3539
     30 H          -6.3601    8.6647    0.0164 H       1  LIG1        0.1425
     31 H          -6.2186    6.9478   -0.0401 H       1  LIG1        0.1425
     32 C          -4.0137   10.4719   -0.0043 C.ar    1  LIG1        0.1907
     33 C          -3.2483   11.6076   -0.0516 C.ar    1  LIG1        0.1211
     34 C          -4.1699   12.7249   -0.0374 C.ar    1  LIG1        0.0812
     35 C          -5.4048   12.1731    0.0167 C.ar    1  LIG1        0.1146
     36 O          -5.3076   10.8016    0.0399 O.2     1  LIG1       -0.4565
     37 H          -6.3939   12.5885    0.0581 H       1  LIG1        0.1049
     38 N          -0.6763   11.7006   -0.1642 N.1     1  LIG1       -0.1907
     39 C          -1.8243   11.6605   -0.1096 C.1     1  LIG1        0.1049
     40 N          -3.7808   14.0585   -0.0082 N.pl3   1  LIG1       -0.3545
     41 H          -2.9039   14.2404   -0.4783 H       1  LIG1        0.1424
     42 H          -4.4998   14.7115   -0.2865 H       1  LIG1        0.1424
@<TRIPOS>BOND
     1     6     1    1
     2    17    18    3
     3     5     1   ar
     4     5     4   ar
     5    41    40    1
     6    18    13    1
     7     1     2   ar
     8    13    12   ar
     9    13    14   ar
    10    20    19    1
    11    42    40    1
    12    19    14    1
    13    19    21    1
    14    12     4    1
    15    12    16   ar
    16     4     3   ar
    17    14    15   ar
    18    38    39    3
    19    16    15   ar
    20    15    22    1
    21    39    33    1
    22    22    26   ar
    23    22    23   ar
    24    26    25   ar
    25     2     3   ar
    26     2     8    1
    27    33    34   ar
    28    33    32   ar
    29    31    29    1
    30    34    40    1
    31    34    35   ar
    32    23    28    1
    33    23    24   ar
    34    32    25    1
    35    32    36   ar
    36    25    24   ar
    37    28    27    3
    38    30    29    1
    39    35    36   ar
    40    35    37    1
    41    24    29    1
    42     3     9    1
    43     8     7    3
    44    11     9    1
    45     9    10    1
