@<TRIPOS>MOLECULE
mol_data/opt/m06hf/geoms/mol2/12dh12dl12if-4hi.out
 50 53 0 0 0
SMALL
GASTEIGER

@<TRIPOS>ATOM
      1 C           0.7763    1.5846   -0.2346 C.ar    1  LIG1        0.1119
      2 C           2.0824    1.6807    0.1341 C.ar    1  LIG1        0.1107
      3 C           2.3738    3.0895    0.2954 C.ar    1  LIG1        0.0917
      4 C           1.1909    3.7170   -0.0069 C.ar    1  LIG1        0.1929
      5 O           0.2351    2.7901   -0.3252 O.2     1  LIG1       -0.4566
      6 H           0.1521    0.7363   -0.4560 H       1  LIG1        0.1043
      7 N           3.8162   -0.1915    0.5061 N.1     1  LIG1       -0.1907
      8 C           3.0219    0.6200    0.3363 C.1     1  LIG1        0.1042
      9 N           3.5693    3.5795    0.7428 N.pl3   1  LIG1       -0.3540
     10 H           4.3237    2.9095    0.7833 H       1  LIG1        0.1425
     11 H           3.8499    4.5076    0.4592 H       1  LIG1        0.1425
     12 C           0.7766    5.1009   -0.0200 C.ar    1  LIG1        0.1936
     13 C           1.4621    6.2776   -0.1723 C.ar    1  LIG1        0.1428
     14 C           0.4825    7.3286   -0.0646 C.ar    1  LIG1        0.1869
     15 C          -0.7132    6.7105    0.1319 C.ar    1  LIG1        0.2137
     16 O          -0.5237    5.3646    0.1646 O.2     1  LIG1       -0.4434
     17 N           3.9703    6.5241   -0.7033 N.1     1  LIG1       -0.1906
     18 C           2.8498    6.4306   -0.4647 C.1     1  LIG1        0.1068
     19 O           0.7349    8.6517   -0.1747 O.3     1  LIG1       -0.4900
     20 C           0.5723    9.1618   -1.5043 C.3     1  LIG1        0.0790
     21 H           0.8081   10.2210   -1.4471 H       1  LIG1        0.0660
     22 H           1.2601    8.6564   -2.1841 H       1  LIG1        0.0660
     23 H          -0.4586    9.0169   -1.8301 H       1  LIG1        0.0660
     24 C          -2.0655    7.2229    0.2752 C.ar    1  LIG1        0.1808
     25 C          -2.5400    8.4230    0.7091 C.ar    1  LIG1        0.0406
     26 C          -3.9686    8.3202    0.5642 C.ar    1  LIG1        0.1664
     27 C          -4.2393    7.0766    0.0563 C.ar    1  LIG1        0.1790
     28 O          -3.0650    6.4078   -0.1221 O.2     1  LIG1       -0.4475
     29 C          -1.8188    9.6114    1.2843 C.3     1  LIG1       -0.0325
     30 H          -2.4115   10.0140    2.1052 H       1  LIG1        0.0280
     31 H          -1.7086   10.3914    0.5281 H       1  LIG1        0.0280
     32 H          -0.8300    9.3282    1.6385 H       1  LIG1        0.0280
     33 O          -4.8110    9.2962    0.9412 O.3     1  LIG1       -0.5030
     34 H          -5.6821    9.1239    0.4934 H       1  LIG1        0.2923
     35 C          -6.6609    7.0007   -0.5477 C.ar    1  LIG1        0.0355
     36 C          -7.8438    6.2784   -0.6852 C.ar    1  LIG1       -0.0401
     37 C          -5.4824    6.3373   -0.1866 C.ar    1  LIG1        0.0418
     38 C          -7.8531    4.9028   -0.4968 C.ar    1  LIG1       -0.0571
     39 H          -8.7563    6.7969   -0.9554 H       1  LIG1        0.0636
     40 C          -5.5040    4.9458   -0.0353 C.ar    1  LIG1       -0.0463
     41 C          -6.6765    4.2149   -0.1870 C.ar    1  LIG1       -0.0497
     42 H          -4.5799    4.4462    0.2281 H       1  LIG1        0.0628
     43 H          -8.7820    4.3556   -0.6052 H       1  LIG1        0.0621
     44 N          -6.6212    8.4148   -0.7659 N.pl3   1  LIG1       -0.3574
     45 H          -5.9727    8.6403   -1.5204 H       1  LIG1        0.1423
     46 H          -7.5368    8.7874   -0.9961 H       1  LIG1        0.1423
     47 C          -6.6876    2.7058   -0.0205 C.3     1  LIG1       -0.0397
     48 H          -5.7669    2.3665    0.4524 H       1  LIG1        0.0278
     49 H          -6.7780    2.2188   -0.9932 H       1  LIG1        0.0278
     50 H          -7.5312    2.3978    0.5980 H       1  LIG1        0.0278
@<TRIPOS>BOND
     1    22    20    1
     2    23    20    1
     3    45    44    1
     4    20    21    1
     5    20    19    1
     6    46    44    1
     7    49    47    1
     8    39    36    1
     9    44    35    1
    10    17    18    3
    11    36    35   ar
    12    36    38   ar
    13    43    38    1
    14    35    37   ar
    15    38    41   ar
    16    18    13    1
    17     6     1    1
    18     5     1   ar
    19     5     4   ar
    20     1     2   ar
    21    41    40   ar
    22    41    47    1
    23    37    40   ar
    24    37    27    1
    25    19    14    1
    26    13    14   ar
    27    13    12   ar
    28    28    27   ar
    29    28    24   ar
    30    14    15   ar
    31    40    42    1
    32    47    48    1
    33    47    50    1
    34    12     4    1
    35    12    16   ar
    36     4     3   ar
    37    27    26   ar
    38    15    16   ar
    39    15    24    1
    40     2     3   ar
    41     2     8    1
    42    24    25   ar
    43     3     9    1
    44     8     7    3
    45    11     9    1
    46    34    33    1
    47    31    29    1
    48    26    25   ar
    49    26    33    1
    50    25    29    1
    51     9    10    1
    52    29    32    1
    53    29    30    1
