@<TRIPOS>MOLECULE
mol_data/opt/m06hf/geoms/mol2/12dh12dh.out
 22 23 0 0 0
SMALL
GASTEIGER

@<TRIPOS>ATOM
      1 C           0.1689    1.8006   -0.3441 C.ar    1  LIG1        0.1119
      2 C           1.5039    1.8095   -0.0831 C.ar    1  LIG1        0.1107
      3 C           1.8940    3.1946    0.0759 C.ar    1  LIG1        0.0917
      4 C           0.7331    3.8985   -0.1195 C.ar    1  LIG1        0.1928
      5 O          -0.3011    3.0388   -0.3734 O.2     1  LIG1       -0.4566
      6 H          -0.5234    0.9968   -0.5258 H       1  LIG1        0.1043
      7 N           3.1351   -0.1768    0.1257 N.1     1  LIG1       -0.1907
      8 C           2.3866    0.6882    0.0287 C.1     1  LIG1        0.1042
      9 N           3.1504    3.6022    0.4322 N.pl3   1  LIG1       -0.3540
     10 H           3.8630    2.8877    0.3936 H       1  LIG1        0.1425
     11 H           3.4624    4.5192    0.1449 H       1  LIG1        0.1425
     12 C           0.4027    5.3050   -0.0545 C.ar    1  LIG1        0.1907
     13 C           1.1462    6.4419   -0.2381 C.ar    1  LIG1        0.1211
     14 C           0.2643    7.5614    0.0052 C.ar    1  LIG1        0.0812
     15 C          -0.9361    7.0038    0.2974 C.ar    1  LIG1        0.1146
     16 O          -0.8443    5.6418    0.2688 O.2     1  LIG1       -0.4565
     17 H          -1.8965    7.4170    0.5434 H       1  LIG1        0.1049
     18 N           3.6022    6.5490   -1.0086 N.1     1  LIG1       -0.1907
     19 C           2.5052    6.5084   -0.6648 C.1     1  LIG1        0.1049
     20 N           0.6602    8.8946   -0.0142 N.pl3   1  LIG1       -0.3545
     21 H           1.4019    9.0905   -0.6747 H       1  LIG1        0.1424
     22 H          -0.1002    9.5543   -0.1020 H       1  LIG1        0.1424
@<TRIPOS>BOND
     1    18    19    3
     2    21    20    1
     3    19    13    1
     4     6     1    1
     5     5     1   ar
     6     5     4   ar
     7     1     2   ar
     8    13    12   ar
     9    13    14   ar
    10     4    12    1
    11     4     3   ar
    12    22    20    1
    13     2     8    1
    14     2     3   ar
    15    12    16   ar
    16    20    14    1
    17    14    15   ar
    18     8     7    3
    19     3     9    1
    20    11     9    1
    21    16    15   ar
    22    15    17    1
    23    10     9    1
