@<TRIPOS>MOLECULE
mol_data/opt/m06hf/geoms/mol2/12dh12dh-12dh-12dh-.out
 42 45 0 0 0
SMALL
GASTEIGER

@<TRIPOS>ATOM
      1 C           0.1810    1.7377   -0.1707 C.ar    1  LIG1        0.1119
      2 C           1.5336    1.8003   -0.0185 C.ar    1  LIG1        0.1107
      3 C           1.8827    3.2027    0.0432 C.ar    1  LIG1        0.0917
      4 C           0.6790    3.8537   -0.0832 C.ar    1  LIG1        0.1928
      5 O          -0.3413    2.9559   -0.2095 O.2     1  LIG1       -0.4566
      6 H          -0.4915    0.9015   -0.2612 H       1  LIG1        0.1043
      7 N           3.2611   -0.1073    0.1291 N.1     1  LIG1       -0.1907
      8 C           2.4672    0.7189    0.0627 C.1     1  LIG1        0.1042
      9 N           3.1272    3.7044    0.2186 N.pl3   1  LIG1       -0.3540
     10 H           3.9157    3.0833    0.1367 H       1  LIG1        0.1425
     11 H           3.2833    4.6973    0.1321 H       1  LIG1        0.1425
     12 C           0.4074    5.2563   -0.1125 C.ar    1  LIG1        0.1917
     13 C          -0.7240    6.0166   -0.2542 C.ar    1  LIG1        0.1219
     14 C          -0.3058    7.4026   -0.2164 C.ar    1  LIG1        0.0925
     15 C           1.0600    7.3584   -0.0433 C.ar    1  LIG1        0.1939
     16 O           1.4723    6.0447    0.0176 O.2     1  LIG1       -0.4453
     17 N          -3.1791    5.3056   -0.5544 N.1     1  LIG1       -0.1907
     18 C          -2.0729    5.5833   -0.4204 C.1     1  LIG1        0.1050
     19 N          -1.1588    8.4378   -0.3824 N.pl3   1  LIG1       -0.3539
     20 H          -0.8898    9.3848   -0.1678 H       1  LIG1        0.1425
     21 H          -2.1450    8.2322   -0.4213 H       1  LIG1        0.1425
     22 C           2.1226    8.3183    0.0316 C.ar    1  LIG1        0.1918
     23 C           2.1781    9.6867    0.1606 C.ar    1  LIG1        0.1219
     24 C           3.5749   10.0608    0.1527 C.ar    1  LIG1        0.0925
     25 C           4.2524    8.8761    0.0172 C.ar    1  LIG1        0.1938
     26 O           3.3598    7.8333   -0.0559 O.2     1  LIG1       -0.4453
     27 N           0.2213   11.3292    0.4758 N.1     1  LIG1       -0.1907
     28 C           1.0906   10.5886    0.3358 C.1     1  LIG1        0.1050
     29 N           4.0183   11.3372    0.3444 N.pl3   1  LIG1       -0.3539
     30 H           4.9324   11.5969    0.0029 H       1  LIG1        0.1425
     31 H           3.3214   12.0643    0.2757 H       1  LIG1        0.1425
     32 C           5.6488    8.5173   -0.0069 C.ar    1  LIG1        0.1907
     33 C           6.7869    9.2148   -0.3225 C.ar    1  LIG1        0.1211
     34 C           7.8996    8.3134   -0.1195 C.ar    1  LIG1        0.0812
     35 C           7.3385    7.1478    0.2819 C.ar    1  LIG1        0.1146
     36 O           5.9794    7.2778    0.3581 O.2     1  LIG1       -0.4565
     37 H           7.7473    6.1915    0.5488 H       1  LIG1        0.1049
     38 N           6.8957   11.6175   -1.2431 N.1     1  LIG1       -0.1907
     39 C           6.8556   10.5443   -0.8310 C.1     1  LIG1        0.1049
     40 N           9.2363    8.6688   -0.2660 N.pl3   1  LIG1       -0.3545
     41 H           9.8677    7.8839   -0.3501 H       1  LIG1        0.1424
     42 H           9.3984    9.3572   -0.9900 H       1  LIG1        0.1424
@<TRIPOS>BOND
     1    38    39    3
     2    42    40    1
     3    39    33    1
     4    17    18    3
     5    21    19    1
     6    18    13    1
     7    19    14    1
     8    19    20    1
     9    41    40    1
    10    33    34   ar
    11    33    32   ar
    12    40    34    1
    13     6     1    1
    14    13    14   ar
    15    13    12   ar
    16    14    15   ar
    17     5     1   ar
    18     5     4   ar
    19     1     2   ar
    20    34    35   ar
    21    12     4    1
    22    12    16   ar
    23     4     3   ar
    24    26    25   ar
    25    26    22   ar
    26    15    16   ar
    27    15    22    1
    28     2     3   ar
    29     2     8    1
    30    32    25    1
    31    32    36   ar
    32    30    29    1
    33    25    24   ar
    34    22    23   ar
    35     3     9    1
    36     8     7    3
    37    11     9    1
    38    10     9    1
    39    24    23   ar
    40    24    29    1
    41    23    28    1
    42    31    29    1
    43    35    36   ar
    44    35    37    1
    45    28    27    3
