@<TRIPOS>MOLECULE
mol_data/opt/m06hf/geoms/mol2/12dh12dh-12dh.out
 32 34 0 0 0
SMALL
GASTEIGER

@<TRIPOS>ATOM
      1 C           0.1626    1.7756   -0.0174 C.ar    1  LIG1        0.1119
      2 C           1.5229    1.7867   -0.0779 C.ar    1  LIG1        0.1107
      3 C           1.9333    3.1764   -0.0851 C.ar    1  LIG1        0.0917
      4 C           0.7475    3.8735   -0.0270 C.ar    1  LIG1        0.1928
      5 O          -0.3138    3.0113    0.0140 O.2     1  LIG1       -0.4566
      6 H          -0.5463    0.9661    0.0095 H       1  LIG1        0.1043
      7 N           3.1654   -0.1993   -0.1517 N.1     1  LIG1       -0.1907
      8 C           2.4118    0.6660   -0.1202 C.1     1  LIG1        0.1042
      9 N           3.2045    3.6161   -0.1570 N.pl3   1  LIG1       -0.3540
     10 H           3.9594    2.9510   -0.1189 H       1  LIG1        0.1425
     11 H           3.4355    4.5949   -0.0663 H       1  LIG1        0.1425
     12 C           0.4890    5.2774   -0.0201 C.ar    1  LIG1        0.1917
     13 C          -0.6622    6.0271   -0.0164 C.ar    1  LIG1        0.1219
     14 C          -0.2521    7.4117   -0.0283 C.ar    1  LIG1        0.0925
     15 C           1.1157    7.3801   -0.0384 C.ar    1  LIG1        0.1938
     16 O           1.5574    6.0797   -0.0299 O.2     1  LIG1       -0.4453
     17 N          -3.1294    5.2926   -0.0369 N.1     1  LIG1       -0.1907
     18 C          -2.0177    5.5803   -0.0227 C.1     1  LIG1        0.1050
     19 N          -1.0900    8.4843    0.0122 N.pl3   1  LIG1       -0.3539
     20 H          -0.7020    9.3872   -0.2119 H       1  LIG1        0.1425
     21 H          -2.0568    8.3268   -0.2263 H       1  LIG1        0.1425
     22 C           2.0964    8.4208   -0.0618 C.ar    1  LIG1        0.1907
     23 C           3.4654    8.3963   -0.0363 C.ar    1  LIG1        0.1211
     24 C           3.9025    9.7757   -0.1027 C.ar    1  LIG1        0.0812
     25 C           2.7668   10.5103   -0.1608 C.ar    1  LIG1        0.1146
     26 O           1.6681    9.6840   -0.1332 O.2     1  LIG1       -0.4565
     27 H           2.5745   11.5654   -0.2068 H       1  LIG1        0.1049
     28 N           4.9526    6.2966    0.0831 N.1     1  LIG1       -0.1907
     29 C           4.2870    7.2328    0.0343 C.1     1  LIG1        0.1049
     30 N           5.2297   10.1797   -0.0361 N.pl3   1  LIG1       -0.3545
     31 H           5.8841    9.5074   -0.4137 H       1  LIG1        0.1424
     32 H           5.4049   11.1130   -0.3807 H       1  LIG1        0.1424
@<TRIPOS>BOND
     1    31    30    1
     2    32    30    1
     3    21    19    1
     4    20    19    1
     5    27    25    1
     6    25    26   ar
     7    25    24   ar
     8     9    10    1
     9     9     3    1
    10     9    11    1
    11     7     8    3
    12    26    22   ar
    13     8     2    1
    14    24    23   ar
    15    24    30    1
    16     3     2   ar
    17     3     4   ar
    18     2     1   ar
    19    22    15    1
    20    22    23   ar
    21    15    16   ar
    22    15    14   ar
    23    17    18    3
    24    23    29    1
    25    16    12   ar
    26    14    13   ar
    27    14    19    1
    28     4    12    1
    29     4     5   ar
    30    18    13    1
    31    12    13   ar
    32     1     6    1
    33     1     5   ar
    34    29    28    3
