@<TRIPOS>MOLECULE
mol_data/opt/m06hf/geoms/mol2/12dh12dh-12dh-12dh.out
 42 45 0 0 0
SMALL
GASTEIGER

@<TRIPOS>ATOM
      1 C           0.1151    1.7404   -0.0763 C.ar    1  LIG1        0.1119
      2 C           1.4747    1.7638   -0.1610 C.ar    1  LIG1        0.1107
      3 C           1.8689    3.1572   -0.1829 C.ar    1  LIG1        0.0917
      4 C           0.6762    3.8424   -0.1058 C.ar    1  LIG1        0.1928
      5 O          -0.3761    2.9707   -0.0431 O.2     1  LIG1       -0.4566
      6 H          -0.5833    0.9219   -0.0329 H       1  LIG1        0.1043
      7 N           3.1241   -0.2151   -0.2598 N.1     1  LIG1       -0.1907
      8 C           2.3699    0.6490   -0.2163 C.1     1  LIG1        0.1042
      9 N           3.1234    3.6291   -0.2819 N.pl3   1  LIG1       -0.3540
     10 H           3.9129    3.0113   -0.1772 H       1  LIG1        0.1425
     11 H           3.3119    4.6145   -0.1788 H       1  LIG1        0.1425
     12 C           0.4304    5.2454   -0.0645 C.ar    1  LIG1        0.1917
     13 C          -0.7067    6.0068    0.0441 C.ar    1  LIG1        0.1219
     14 C          -0.2876    7.3902    0.0462 C.ar    1  LIG1        0.0925
     15 C           1.0867    7.3496   -0.0737 C.ar    1  LIG1        0.1939
     16 O           1.5015    6.0343   -0.1381 O.2     1  LIG1       -0.4453
     17 N          -3.1796    5.3191    0.2222 N.1     1  LIG1       -0.1907
     18 C          -2.0637    5.5808    0.1439 C.1     1  LIG1        0.1050
     19 N          -1.1517    8.4167    0.1879 N.pl3   1  LIG1       -0.3539
     20 H          -0.8804    9.3749    0.0381 H       1  LIG1        0.1425
     21 H          -2.1369    8.2041    0.2063 H       1  LIG1        0.1425
     22 C           2.1345    8.3218   -0.1092 C.ar    1  LIG1        0.1918
     23 C           2.1642    9.6990   -0.2025 C.ar    1  LIG1        0.1219
     24 C           3.5509   10.0941   -0.1689 C.ar    1  LIG1        0.0925
     25 C           4.2485    8.9219   -0.0695 C.ar    1  LIG1        0.1938
     26 O           3.3847    7.8582   -0.0289 O.2     1  LIG1       -0.4453
     27 N           0.2075   11.3423   -0.5095 N.1     1  LIG1       -0.1907
     28 C           1.0723   10.5965   -0.3673 C.1     1  LIG1        0.1050
     29 N           4.0094   11.3772   -0.1906 N.pl3   1  LIG1       -0.3539
     30 H           4.9951   11.5120   -0.3540 H       1  LIG1        0.1425
     31 H           3.3883   12.0869   -0.5470 H       1  LIG1        0.1425
     32 C           5.6586    8.6716   -0.0290 C.ar    1  LIG1        0.1907
     33 C           6.4113    7.5300    0.0462 C.ar    1  LIG1        0.1211
     34 C           7.7987    7.9486    0.0305 C.ar    1  LIG1        0.0812
     35 C           7.7676    9.2991   -0.0520 C.ar    1  LIG1        0.1146
     36 O           6.4653    9.7370   -0.0849 O.2     1  LIG1       -0.4565
     37 H           8.5316   10.0529   -0.0787 H       1  LIG1        0.1049
     38 N           5.6516    5.0729    0.1458 N.1     1  LIG1       -0.1907
     39 C           5.9566    6.1800    0.1069 C.1     1  LIG1        0.1049
     40 N           8.8746    7.0804    0.1567 N.pl3   1  LIG1       -0.3545
     41 H           8.6931    6.1479   -0.1905 H       1  LIG1        0.1424
     42 H           9.7560    7.4458   -0.1748 H       1  LIG1        0.1424
@<TRIPOS>BOND
     1    31    29    1
     2    27    28    3
     3    28    23    1
     4    30    29    1
     5     9     3    1
     6     9    11    1
     7     9    10    1
     8     7     8    3
     9     8     2    1
    10    23    24   ar
    11    23    22   ar
    12    29    24    1
    13    41    40    1
    14     3     2   ar
    15     3     4   ar
    16    42    40    1
    17    24    25   ar
    18     2     1   ar
    19    16    15   ar
    20    16    12   ar
    21    22    15    1
    22    22    26   ar
    23     4    12    1
    24     4     5   ar
    25    36    35   ar
    26    36    32   ar
    27    37    35    1
    28     1     5   ar
    29     1     6    1
    30    15    14   ar
    31    25    32    1
    32    25    26   ar
    33    12    13   ar
    34    35    34   ar
    35    32    33   ar
    36    34    33   ar
    37    34    40    1
    38    20    19    1
    39    13    14   ar
    40    13    18    1
    41    14    19    1
    42    33    39    1
    43    39    38    3
    44    18    17    3
    45    19    21    1
