@<TRIPOS>MOLECULE
mol_data/opt/m06hf/geoms/mol2/12dh12dh-12dh12dh-.out
 42 45 0 0 0
SMALL
GASTEIGER

@<TRIPOS>ATOM
      1 C           0.1493    1.7363   -0.0471 C.ar    1  LIG1        0.1119
      2 C           1.5116    1.7421   -0.0521 C.ar    1  LIG1        0.1107
      3 C           1.9264    3.1301   -0.0667 C.ar    1  LIG1        0.0917
      4 C           0.7404    3.8318   -0.0679 C.ar    1  LIG1        0.1928
      5 O          -0.3246    2.9729   -0.0568 O.2     1  LIG1       -0.4566
      6 H          -0.5621    0.9284   -0.0368 H       1  LIG1        0.1043
      7 N           3.1508   -0.2465   -0.0334 N.1     1  LIG1       -0.1907
      8 C           2.3971    0.6190   -0.0425 C.1     1  LIG1        0.1042
      9 N           3.1978    3.5664   -0.0821 N.pl3   1  LIG1       -0.3540
     10 H           3.9533    2.9021   -0.0422 H       1  LIG1        0.1425
     11 H           3.4286    4.5492   -0.0725 H       1  LIG1        0.1425
     12 C           0.4935    5.2360   -0.0724 C.ar    1  LIG1        0.1917
     13 C          -0.6546    5.9920   -0.0680 C.ar    1  LIG1        0.1219
     14 C          -0.2420    7.3780   -0.0721 C.ar    1  LIG1        0.0925
     15 C           1.1364    7.3346   -0.0792 C.ar    1  LIG1        0.1939
     16 O           1.5688    6.0263   -0.0797 O.2     1  LIG1       -0.4453
     17 N          -3.1251    5.2721   -0.0525 N.1     1  LIG1       -0.1907
     18 C          -2.0111    5.5520   -0.0596 C.1     1  LIG1        0.1050
     19 N          -1.0707    8.4332   -0.0743 N.pl3   1  LIG1       -0.3539
     20 H          -0.7299    9.3837   -0.0510 H       1  LIG1        0.1425
     21 H          -2.0658    8.2815   -0.0396 H       1  LIG1        0.1425
     22 C           2.1136    8.3608   -0.0814 C.ar    1  LIG1        0.1918
     23 C           3.4921    8.3346   -0.0867 C.ar    1  LIG1        0.1219
     24 C           3.9328    9.7087   -0.0854 C.ar    1  LIG1        0.0925
     25 C           2.7830   10.4513   -0.0823 C.ar    1  LIG1        0.1938
     26 O           1.6834    9.6245   -0.0770 O.2     1  LIG1       -0.4453
     27 N           4.9804    6.2347   -0.1028 N.1     1  LIG1       -0.1907
     28 C           4.3138    7.1716   -0.0926 C.1     1  LIG1        0.1050
     29 N           5.2279   10.1304   -0.0389 N.pl3   1  LIG1       -0.3539
     30 H           5.9397    9.4750   -0.3224 H       1  LIG1        0.1425
     31 H           5.4052   11.1034   -0.2361 H       1  LIG1        0.1425
     32 C           2.5516   11.8624   -0.0823 C.ar    1  LIG1        0.1907
     33 C           1.3981   12.6013   -0.0639 C.ar    1  LIG1        0.1211
     34 C           1.8021   13.9921   -0.0798 C.ar    1  LIG1        0.0812
     35 C           3.1556   13.9741   -0.1086 C.ar    1  LIG1        0.1146
     36 O           3.6105   12.6759   -0.1063 O.2     1  LIG1       -0.4565
     37 H           3.9018   14.7458   -0.1162 H       1  LIG1        0.1049
     38 N          -0.9995   11.6612   -0.0271 N.1     1  LIG1       -0.1907
     39 C           0.0697   12.0835   -0.0384 C.1     1  LIG1        0.1049
     40 N           0.9202   15.0619    0.0033 N.pl3   1  LIG1       -0.3545
     41 H           1.3067   15.9507   -0.2812 H       1  LIG1        0.1424
     42 H           0.0193   14.8860   -0.4213 H       1  LIG1        0.1424
@<TRIPOS>BOND
     1    42    40    1
     2    30    29    1
     3    41    40    1
     4    31    29    1
     5    37    35    1
     6    35    36   ar
     7    35    34   ar
     8    36    32   ar
     9    27    28    3
    10    28    23    1
    11    23    24   ar
    12    23    22   ar
    13    24    25   ar
    14    24    29    1
    15    25    32    1
    16    25    26   ar
    17    32    33   ar
    18     9    11    1
    19     9     3    1
    20     9    10    1
    21    22    15    1
    22    22    26   ar
    23    34    33   ar
    24    34    40    1
    25    16    15   ar
    26    16    12   ar
    27    15    14   ar
    28    19    14    1
    29    19    20    1
    30    19    21    1
    31    12    13   ar
    32    12     4    1
    33    14    13   ar
    34    13    18    1
    35     4     3   ar
    36     4     5   ar
    37     3     2   ar
    38    33    39    1
    39    18    17    3
    40     5     1   ar
    41     2     1   ar
    42     2     8    1
    43     1     6    1
    44     8     7    3
    45    39    38    3
