@<TRIPOS>MOLECULE
mol_data/opt/m06hf/geoms/mol2/12dh.out
 12 12 0 0 0
SMALL
GASTEIGER

@<TRIPOS>ATOM
      1 C           0.1098    1.8882    0.0319 C.ar    1  LIG1        0.1109
      2 C           1.4694    1.8794   -0.0051 C.ar    1  LIG1        0.1100
      3 C           1.8903    3.2631   -0.0480 C.ar    1  LIG1        0.0804
      4 C           0.7376    3.9787   -0.0324 C.ar    1  LIG1        0.1136
      5 O          -0.3356    3.1392    0.0169 O.2     1  LIG1       -0.4678
      6 H          -0.6155    1.0944    0.0667 H       1  LIG1        0.1043
      7 H           0.5294    5.0321   -0.0415 H       1  LIG1        0.1049
      8 N           3.0737   -0.1395   -0.0472 N.1     1  LIG1       -0.1907
      9 C           2.3388    0.7419   -0.0207 C.1     1  LIG1        0.1042
     10 N           3.2150    3.6886   -0.0314 N.pl3   1  LIG1       -0.3545
     11 H           3.8636    3.0090   -0.4073 H       1  LIG1        0.1424
     12 H           3.3652    4.6071   -0.4250 H       1  LIG1        0.1424
@<TRIPOS>BOND
     1    12    10    1
     2    11    10    1
     3     3     4   ar
     4     3    10    1
     5     3     2   ar
     6     8     9    3
     7     7     4    1
     8     4     5   ar
     9     9     2    1
    10     2     1   ar
    11     5     1   ar
    12     1     6    1
