@<TRIPOS>MOLECULE
mol_data/opt/m06hf/geoms/mol2/12dh12dh12dh-12dh-.out
 42 45 0 0 0
SMALL
GASTEIGER

@<TRIPOS>ATOM
      1 C           0.3895    1.6686   -0.4546 C.ar    1  LIG1        0.1119
      2 C           1.7020    1.7258   -0.0991 C.ar    1  LIG1        0.1107
      3 C           2.0396    3.1261    0.0444 C.ar    1  LIG1        0.0917
      4 C           0.8707    3.7883   -0.2545 C.ar    1  LIG1        0.1928
      5 O          -0.1157    2.8864   -0.5528 O.2     1  LIG1       -0.4566
      6 H          -0.2635    0.8376   -0.6608 H       1  LIG1        0.1043
      7 N           3.3864   -0.1868    0.2844 N.1     1  LIG1       -0.1907
      8 C           2.6118    0.6417    0.1085 C.1     1  LIG1        0.1042
      9 N           3.2520    3.5730    0.4664 N.pl3   1  LIG1       -0.3540
     10 H           3.9892    2.8872    0.5343 H       1  LIG1        0.1425
     11 H           3.5485    4.5154    0.2622 H       1  LIG1        0.1425
     12 C           0.4828    5.1739   -0.2515 C.ar    1  LIG1        0.1917
     13 C           1.1991    6.3472   -0.3347 C.ar    1  LIG1        0.1219
     14 C           0.2493    7.4288   -0.2363 C.ar    1  LIG1        0.0925
     15 C          -0.9678    6.8056   -0.1227 C.ar    1  LIG1        0.1939
     16 O          -0.8130    5.4475   -0.1248 O.2     1  LIG1       -0.4453
     17 N           3.7260    6.6196   -0.7427 N.1     1  LIG1       -0.1907
     18 C           2.5975    6.4929   -0.5602 C.1     1  LIG1        0.1050
     19 N           0.5415    8.7525   -0.2349 N.pl3   1  LIG1       -0.3539
     20 H           1.4611    9.0489   -0.5166 H       1  LIG1        0.1425
     21 H          -0.2171    9.4151   -0.2874 H       1  LIG1        0.1425
     22 C          -2.2755    7.3720   -0.0250 C.ar    1  LIG1        0.1918
     23 C          -3.5352    6.8542    0.1206 C.ar    1  LIG1        0.1219
     24 C          -4.4481    7.9780    0.1616 C.ar    1  LIG1        0.0925
     25 C          -3.6536    9.0891    0.0231 C.ar    1  LIG1        0.1938
     26 O          -2.3358    8.7038   -0.0913 O.2     1  LIG1       -0.4453
     27 N          -4.3194    4.4091    0.3059 N.1     1  LIG1       -0.1907
     28 C          -3.9293    5.4861    0.2228 C.1     1  LIG1        0.1050
     29 N          -5.7853    7.8494    0.3769 N.pl3   1  LIG1       -0.3539
     30 H          -6.4148    8.5833    0.0870 H       1  LIG1        0.1425
     31 H          -6.1577    6.9124    0.3339 H       1  LIG1        0.1425
     32 C          -3.8824   10.5103    0.0289 C.ar    1  LIG1        0.1907
     33 C          -4.9929   11.2900   -0.1760 C.ar    1  LIG1        0.1211
     34 C          -4.5756   12.6647   -0.0013 C.ar    1  LIG1        0.0812
     35 C          -3.2515   12.5996    0.2766 C.ar    1  LIG1        0.1146
     36 O          -2.8375   11.2951    0.2997 O.2     1  LIG1       -0.4565
     37 H          -2.5084   13.3471    0.4810 H       1  LIG1        0.1049
     38 N          -7.3277   10.4903   -0.9119 N.1     1  LIG1       -0.1907
     39 C          -6.2868   10.8478   -0.5766 C.1     1  LIG1        0.1049
     40 N          -5.4293   13.7600   -0.0635 N.pl3   1  LIG1       -0.3545
     41 H          -4.9683   14.6393   -0.2519 H       1  LIG1        0.1424
     42 H          -6.2314   13.6201   -0.6645 H       1  LIG1        0.1424
@<TRIPOS>BOND
     1    38    39    3
     2    17    18    3
     3    42    40    1
     4     6     1    1
     5    39    33    1
     6    18    13    1
     7     5     1   ar
     8     5     4   ar
     9    20    19    1
    10     1     2   ar
    11    13    12   ar
    12    13    14   ar
    13    21    19    1
    14     4    12    1
    15     4     3   ar
    16    41    40    1
    17    12    16   ar
    18    14    19    1
    19    14    15   ar
    20    33    34   ar
    21    33    32   ar
    22    16    15   ar
    23    15    22    1
    24     2     3   ar
    25     2     8    1
    26    26    22   ar
    27    26    25   ar
    28    40    34    1
    29    22    23   ar
    30    34    35   ar
    31    25    32    1
    32    25    24   ar
    33    32    36   ar
    34     3     9    1
    35    30    29    1
    36     8     7    3
    37    23    24   ar
    38    23    28    1
    39    24    29    1
    40    28    27    3
    41    11     9    1
    42    35    36   ar
    43    35    37    1
    44    31    29    1
    45     9    10    1
