@<TRIPOS>MOLECULE
mol_data/opt/m06hf/geoms/mol2/12di12ah-6he6hd-12fa-12fl-13da4ed.out
 89 96 0 0 0
SMALL
GASTEIGER

@<TRIPOS>ATOM
      1 C           0.9557    1.5444   -0.4101 C.ar    1  LIG1        0.1103
      2 C           2.2690    1.7811   -0.1526 C.ar    1  LIG1        0.0930
      3 C           2.4467    3.2139   -0.1275 C.ar    1  LIG1        0.0157
      4 C           1.2080    3.7087   -0.3870 C.ar    1  LIG1        0.1739
      5 O           0.3092    2.7045   -0.5563 O.2     1  LIG1       -0.4582
      6 H           0.3843    0.6381   -0.5066 H       1  LIG1        0.1043
      7 N           4.1143    0.0263    0.2751 N.1     1  LIG1       -0.1908
      8 C           3.2850    0.7950    0.0801 C.1     1  LIG1        0.1026
      9 C           3.7225    3.9619    0.1495 C.3     1  LIG1       -0.0348
     10 H           3.4924    4.9346    0.5841 H       1  LIG1        0.0279
     11 H           4.2899    4.1060   -0.7712 H       1  LIG1        0.0279
     12 H           4.3365    3.3935    0.8474 H       1  LIG1        0.0279
     13 C           0.7105    5.0689   -0.5214 C.ar    1  LIG1        0.1727
     14 C           1.3001    6.2282   -0.9164 C.ar    1  LIG1        0.0086
     15 C           0.2762    7.2356   -0.8458 C.ar    1  LIG1        0.0718
     16 C          -0.8526    6.6030   -0.4060 C.ar    1  LIG1        0.1597
     17 O          -0.5811    5.2796   -0.2077 O.2     1  LIG1       -0.4497
     18 H           2.3155    6.3538   -1.2535 H       1  LIG1        0.0675
     19 N           0.4267    8.5928   -1.1479 N.pl3   1  LIG1       -0.3550
     20 H           1.2075    8.7731   -1.7656 H       1  LIG1        0.1424
     21 H          -0.4213    9.0107   -1.5154 H       1  LIG1        0.1424
     22 C          -3.3683    6.3139   -0.3619 C.ar    1  LIG1        0.1277
     23 C          -2.2001    7.1032   -0.1412 C.ar    1  LIG1        0.0598
     24 C          -2.3886    8.3916    0.3222 C.ar    1  LIG1       -0.0302
     25 C          -3.6728    8.9273    0.5030 C.ar    1  LIG1        0.0515
     26 C          -4.7629    8.0990    0.1916 C.ar    1  LIG1        0.0918
     27 N          -4.5842    6.8361   -0.1970 N.ar    1  LIG1       -0.2304
     28 H          -1.5264    9.0014    0.5670 H       1  LIG1        0.0639
     29 N          -3.3145    5.0293   -0.7587 N.pl3   1  LIG1       -0.3426
     30 H          -4.1925    4.5388   -0.8701 H       1  LIG1        0.1437
     31 H          -2.4409    4.5297   -0.7710 H       1  LIG1        0.1437
     32 C          -3.7955   10.2574    1.0405 C.1     1  LIG1       -0.0675
     33 C          -3.8443   11.3699    1.4951 C.1     1  LIG1       -0.1138
     34 H          -3.9015   12.3516    1.9059 H       1  LIG1        0.1232
     35 C          -7.2508    7.6671    0.5959 C.ar    1  LIG1        0.1263
     36 C          -6.1769    8.5586    0.2629 C.ar    1  LIG1        0.0424
     37 C          -6.5270    9.8558   -0.0478 C.ar    1  LIG1       -0.0296
     38 C          -7.8644   10.2678    0.0005 C.ar    1  LIG1        0.0816
     39 C          -8.8373    9.3390    0.3987 C.ar    1  LIG1        0.1290
     40 N          -8.5193    8.0845    0.6826 N.ar    1  LIG1       -0.2273
     41 H          -5.7703   10.5637   -0.3567 H       1  LIG1        0.0639
     42 N          -7.0481    6.3694    0.8686 N.pl3   1  LIG1       -0.3426
     43 H          -7.8676    5.8233    1.0778 H       1  LIG1        0.1437
     44 H          -6.1817    5.9363    0.5748 H       1  LIG1        0.1437
     45 N          -8.5416   12.6344   -0.7896 N.1     1  LIG1       -0.1908
     46 C          -8.2299   11.5832   -0.4380 C.1     1  LIG1        0.1014
     47 C         -10.2721    9.6515    0.4706 C.ar    1  LIG1        0.1964
     48 C         -11.0556   10.7449    0.7623 C.ar    1  LIG1        0.1649
     49 C         -12.4186   10.3020    0.7040 C.ar    1  LIG1        0.0297
     50 C         -12.3514    8.9819    0.3831 C.ar    1  LIG1        0.1781
     51 O         -11.0807    8.5867    0.2411 O.2     1  LIG1       -0.4462
     52 O         -10.7211   11.9959    1.1427 O.3     1  LIG1       -0.5031
     53 H         -10.0346   12.3772    0.5759 H       1  LIG1        0.2923
     54 H         -13.2989   10.8930    0.8859 H       1  LIG1        0.0693
     55 C         -13.3401    7.9462    0.1599 C.ar    1  LIG1        0.2157
     56 C         -14.6944    7.9286    0.0455 C.ar    1  LIG1        0.2092
     57 C         -15.0678    6.5603   -0.1953 C.ar    1  LIG1        0.2099
     58 C         -13.9050    5.8489   -0.2142 C.ar    1  LIG1        0.1984
     59 O         -12.8651    6.6853   -0.0022 O.2     1  LIG1       -0.4426
     60 O         -15.5420    8.9782    0.1309 O.3     1  LIG1       -0.5007
     61 H         -16.4221    8.6443    0.3489 H       1  LIG1        0.2924
     62 O         -16.3440    6.1313   -0.3239 O.3     1  LIG1       -0.4884
     63 C         -16.8779    6.2897   -1.6493 C.3     1  LIG1        0.0791
     64 H         -17.8750    5.8609   -1.6208 H       1  LIG1        0.0660
     65 H         -16.9139    7.3497   -1.9092 H       1  LIG1        0.0660
     66 H         -16.2614    5.7444   -2.3626 H       1  LIG1        0.0660
     67 C         -13.5240    4.4543   -0.3417 C.ar    1  LIG1        0.1039
     68 C         -14.1944    3.2950   -0.7052 C.ar    1  LIG1        0.0807
     69 C         -13.2695    2.2190   -0.6147 C.ar    1  LIG1       -0.0182
     70 C         -12.0673    2.7523   -0.2061 C.ar    1  LIG1        0.0495
     71 N         -12.2474    4.1039   -0.0557 N.ar    1  LIG1       -0.3506
     72 H         -11.5689    4.7689    0.2933 H       1  LIG1        0.1660
     73 N         -16.6443    3.1108   -1.4969 N.1     1  LIG1       -0.1908
     74 C         -15.5591    3.2044   -1.1325 C.1     1  LIG1        0.1014
     75 H         -13.4702    1.1879   -0.8453 H       1  LIG1        0.0652
     76 C         -10.6170    0.8478    0.5802 C.ar    1  LIG1        0.0338
     77 C          -9.3493    0.2967    0.7991 C.ar    1  LIG1       -0.0445
     78 C         -10.7479    2.1359    0.0248 C.ar    1  LIG1        0.0149
     79 C          -8.2028    1.0106    0.4920 C.ar    1  LIG1       -0.0432
     80 H          -9.2812   -0.6937    1.2268 H       1  LIG1        0.0630
     81 C          -9.5879    2.8457   -0.2996 C.ar    1  LIG1       -0.0341
     82 C          -8.3346    2.2876   -0.0562 C.ar    1  LIG1        0.0525
     83 H          -9.6558    3.8201   -0.7672 H       1  LIG1        0.0637
     84 H          -7.2214    0.5938    0.6693 H       1  LIG1        0.0631
     85 C         -11.7662    0.0644    0.9628 C.1     1  LIG1       -0.0690
     86 C         -12.6881   -0.6269    1.3034 C.1     1  LIG1       -0.1139
     87 H         -13.5154   -1.2274    1.6067 H       1  LIG1        0.1232
     88 N          -6.1649    3.6025   -0.6145 N.1     1  LIG1       -0.1909
     89 C          -7.1326    3.0329   -0.3799 C.1     1  LIG1        0.0992
@<TRIPOS>BOND
     1    66    63    1
     2    65    63    1
     3    20    19    1
     4    63    64    1
     5    63    62    1
     6    21    19    1
     7    73    74    3
     8    18    14    1
     9    19    15    1
    10    74    68    1
    11    14    15   ar
    12    14    13   ar
    13    30    29    1
    14    15    16   ar
    15    75    69    1
    16    45    46    3
    17    11     9    1
    18    31    29    1
    19    83    81    1
    20    29    22    1
    21    68    69   ar
    22    68    67   ar
    23    69    70   ar
    24    88    89    3
    25     5     1   ar
    26     5     4   ar
    27    13     4    1
    28    13    17   ar
    29     6     1    1
    30    46    38    1
    31     1     2   ar
    32    16    17   ar
    33    16    23    1
    34     4     3   ar
    35    89    82    1
    36    22    27   ar
    37    22    23   ar
    38    41    37    1
    39    67    58    1
    40    67    71   ar
    41    62    57    1
    42    81    82   ar
    43    81    78   ar
    44    58    57   ar
    45    58    59   ar
    46    70    71   ar
    47    70    78    1
    48    27    26   ar
    49    57    56   ar
    50     2     3   ar
    51     2     8    1
    52    23    24   ar
    53     3     9    1
    54    82    79   ar
    55    71    72    1
    56    37    38   ar
    57    37    36   ar
    58    59    55   ar
    59    38    39   ar
    60    78    76   ar
    61    56    60    1
    62    56    55   ar
    63     8     7    3
    64    60    61    1
    65     9    10    1
    66     9    12    1
    67    55    50    1
    68    26    36    1
    69    26    25   ar
    70    51    50   ar
    71    51    47   ar
    72    36    35   ar
    73    24    25   ar
    74    24    28    1
    75    50    49   ar
    76    39    47    1
    77    39    40   ar
    78    47    48   ar
    79    79    84    1
    80    79    77   ar
    81    25    32    1
    82    44    42    1
    83    53    52    1
    84    76    77   ar
    85    76    85    1
    86    35    40   ar
    87    35    42    1
    88    49    48   ar
    89    49    54    1
    90    48    52    1
    91    77    80    1
    92    42    43    1
    93    85    86    3
    94    32    33    3
    95    86    87    1
    96    33    34    1
