@<TRIPOS>MOLECULE
mol_data/opt/m06hf/geoms/mol2/12di6ia-12df-6hf.out
 46 49 0 0 0
SMALL
GASTEIGER

@<TRIPOS>ATOM
      1 C           0.6561    1.6977   -1.1010 C.ar    1  LIG1        0.1102
      2 C           1.8139    1.7262   -0.3910 C.ar    1  LIG1        0.0929
      3 C           2.0127    3.0907    0.0404 C.ar    1  LIG1        0.0127
      4 C           0.9459    3.7686   -0.4622 C.ar    1  LIG1        0.1407
      5 O           0.1277    2.9229   -1.1473 O.2     1  LIG1       -0.4613
      6 H           0.1262    0.9057   -1.6000 H       1  LIG1        0.1043
      7 N           3.3758   -0.2631    0.1275 N.1     1  LIG1       -0.1908
      8 C           2.6729    0.6121   -0.1100 C.1     1  LIG1        0.1026
      9 C           3.1501    3.5917    0.8907 C.3     1  LIG1       -0.0349
     10 H           2.8954    4.5552    1.3302 H       1  LIG1        0.0279
     11 H           4.0572    3.6967    0.2937 H       1  LIG1        0.0279
     12 H           3.3475    2.8770    1.6897 H       1  LIG1        0.0279
     13 C          -0.7457    5.5963   -0.0946 C.ar    1  LIG1        0.0497
     14 C           0.5699    5.1910   -0.3982 C.ar    1  LIG1        0.0386
     15 C           1.5352    6.1686   -0.6243 C.ar    1  LIG1       -0.0472
     16 C           1.1892    7.5111   -0.5440 C.ar    1  LIG1       -0.0319
     17 C          -0.1364    7.8095   -0.2427 C.ar    1  LIG1        0.1077
     18 N          -1.0714    6.8812   -0.0258 N.ar    1  LIG1       -0.2480
     19 H           2.5443    5.8765   -0.8863 H       1  LIG1        0.0626
     20 C          -1.8532    4.6004    0.1798 C.3     1  LIG1       -0.0216
     21 H          -1.5021    3.8130    0.8482 H       1  LIG1        0.0293
     22 H          -2.1803    4.1383   -0.7520 H       1  LIG1        0.0293
     23 H          -2.6824    5.1371    0.6333 H       1  LIG1        0.0293
     24 H           1.9152    8.2915   -0.7242 H       1  LIG1        0.0640
     25 C          -0.6051    9.2036   -0.1399 C.ar    1  LIG1        0.1748
     26 C           0.0266   10.4093    0.0188 C.ar    1  LIG1        0.1409
     27 C          -1.0118   11.3978    0.0969 C.ar    1  LIG1        0.1812
     28 C          -2.1901   10.7275   -0.0357 C.ar    1  LIG1        0.1817
     29 O          -1.9242    9.4023   -0.1740 O.2     1  LIG1       -0.4480
     30 N           2.5669   10.8026    0.2214 N.1     1  LIG1       -0.1906
     31 C           1.4338   10.6412    0.1355 C.1     1  LIG1        0.1067
     32 O          -0.7818   12.7147    0.2833 O.3     1  LIG1       -0.5023
     33 H          -1.5519   13.1323    0.6904 H       1  LIG1        0.2923
     34 C          -4.6168   10.4062    0.5551 C.ar    1  LIG1        0.1272
     35 C          -3.5794   11.1849   -0.0240 C.ar    1  LIG1        0.0639
     36 C          -3.8978   12.4282   -0.5557 C.ar    1  LIG1       -0.0046
     37 C          -5.2049   12.8967   -0.4722 C.ar    1  LIG1        0.1357
     38 C          -6.1469   12.0734    0.1300 C.ar    1  LIG1        0.0711
     39 N          -5.8623   10.8671    0.6120 N.ar    1  LIG1       -0.2364
     40 H          -3.1474   13.0309   -1.0539 H       1  LIG1        0.0663
     41 H          -7.1804   12.3952    0.2188 H       1  LIG1        0.0867
     42 N          -4.3833    9.1781    1.1174 N.pl3   1  LIG1       -0.3426
     43 H          -5.2223    8.6838    1.3800 H       1  LIG1        0.1437
     44 H          -3.6037    8.6242    0.7945 H       1  LIG1        0.1437
     45 O          -5.4899   14.1273   -0.9880 O.3     1  LIG1       -0.5052
     46 H          -6.4360   14.3031   -0.9469 H       1  LIG1        0.2922
@<TRIPOS>BOND
     1     6     1    1
     2     5     1   ar
     3     5     4   ar
     4     1     2   ar
     5    40    36    1
     6    45    46    1
     7    45    37    1
     8    19    15    1
     9    22    20    1
    10    24    16    1
    11    15    16   ar
    12    15    14   ar
    13    36    37   ar
    14    36    35   ar
    15    16    17   ar
    16    37    38   ar
    17     4    14    1
    18     4     3   ar
    19    14    13   ar
    20     2     8    1
    21     2     3   ar
    22    17    25    1
    23    17    18   ar
    24    29    25   ar
    25    29    28   ar
    26    25    26   ar
    27     8     7    3
    28    13    18   ar
    29    13    20    1
    30    28    35    1
    31    28    27   ar
    32    35    34   ar
    33    26    27   ar
    34    26    31    1
    35     3     9    1
    36    27    32    1
    37    38    41    1
    38    38    39   ar
    39    31    30    3
    40    20    23    1
    41    20    21    1
    42    32    33    1
    43    11     9    1
    44    34    39   ar
    45    34    42    1
    46    44    42    1
    47     9    10    1
    48     9    12    1
    49    42    43    1
