@<TRIPOS>MOLECULE
mol_data/opt/m06hf/geoms/mol2/12di13af-13ei-13fd-.out
 45 48 0 0 0
SMALL
GASTEIGER

@<TRIPOS>ATOM
      1 C           0.4834    1.7683    0.6969 C.ar    1  LIG1        0.1102
      2 C           1.7984    1.7756    0.3623 C.ar    1  LIG1        0.0929
      3 C           2.1271    3.1136   -0.0744 C.ar    1  LIG1        0.0141
      4 C           0.9580    3.7990    0.0314 C.ar    1  LIG1        0.1551
      5 O          -0.0327    2.9895    0.4981 O.2     1  LIG1       -0.4599
      6 H          -0.1722    1.0020    1.0702 H       1  LIG1        0.1043
      7 N           3.4436   -0.2115    0.4932 N.1     1  LIG1       -0.1908
      8 C           2.7007    0.6618    0.4394 C.1     1  LIG1        0.1026
      9 C           3.4733    3.6144   -0.5259 C.3     1  LIG1       -0.0348
     10 H           3.7119    4.5498   -0.0184 H       1  LIG1        0.0279
     11 H           3.4769    3.7861   -1.6033 H       1  LIG1        0.0279
     12 H           4.2369    2.8758   -0.2865 H       1  LIG1        0.0279
     13 C           0.5871    5.1794   -0.2340 C.ar    1  LIG1        0.0864
     14 C           1.2898    6.2177   -0.8139 C.ar    1  LIG1        0.0089
     15 C           0.4443    7.3545   -0.7728 C.ar    1  LIG1        0.1442
     16 C          -0.7477    6.9774   -0.1769 C.ar    1  LIG1        0.1066
     17 N          -0.6368    5.6440    0.1406 N.ar    1  LIG1       -0.3476
     18 H          -1.2871    5.1218    0.7071 H       1  LIG1        0.1661
     19 H           2.2748    6.1822   -1.2451 H       1  LIG1        0.0676
     20 O           0.7725    8.5551   -1.3053 O.3     1  LIG1       -0.5046
     21 H           0.3454    9.2708   -0.8125 H       1  LIG1        0.2922
     22 C          -1.9701    7.7329    0.0466 C.ar    1  LIG1        0.0828
     23 C          -2.1495    9.0580    0.4076 C.ar    1  LIG1        0.0550
     24 C          -3.5561    9.3210    0.4618 C.ar    1  LIG1       -0.0076
     25 C          -4.1767    8.1412    0.1347 C.ar    1  LIG1        0.0711
     26 N          -3.2089    7.1864   -0.1074 N.ar    1  LIG1       -0.3505
     27 H          -3.3810    6.3071   -0.5712 H       1  LIG1        0.1660
     28 C          -1.0867    9.9683    0.7059 C.1     1  LIG1       -0.0672
     29 C          -0.1748   10.7208    0.9402 C.1     1  LIG1       -0.1138
     30 H           0.6243   11.3859    1.1745 H       1  LIG1        0.1232
     31 C          -4.2143   10.6278    0.8134 C.3     1  LIG1       -0.0365
     32 H          -5.2091   10.4451    1.2197 H       1  LIG1        0.0279
     33 H          -4.3173   11.2468   -0.0783 H       1  LIG1        0.0279
     34 H          -3.6115   11.1598    1.5491 H       1  LIG1        0.0279
     35 C          -5.6005    7.8420    0.0231 C.ar    1  LIG1        0.1065
     36 C          -6.5985    8.5270   -0.6250 C.ar    1  LIG1        0.1609
     37 C          -7.8157    7.8106   -0.4158 C.ar    1  LIG1        0.1110
     38 C          -7.5146    6.7030    0.3534 C.ar    1  LIG1        0.0233
     39 N          -6.1916    6.7358    0.6069 N.ar    1  LIG1       -0.3554
     40 H          -5.7001    6.0950    1.2102 H       1  LIG1        0.1655
     41 H          -8.1603    5.9274    0.7254 H       1  LIG1        0.0821
     42 O          -6.4240    9.6659   -1.3317 O.3     1  LIG1       -0.5034
     43 H          -7.2598    9.9445   -1.7251 H       1  LIG1        0.2923
     44 N         -10.0749    8.5789   -1.3904 N.1     1  LIG1       -0.1907
     45 C          -9.0870    8.2037   -0.9397 C.1     1  LIG1        0.1043
@<TRIPOS>BOND
     1    43    42    1
     2    11     9    1
     3    44    45    3
     4    42    36    1
     5    20    21    1
     6    20    15    1
     7    19    14    1
     8    45    37    1
     9    14    15   ar
    10    14    13   ar
    11    15    16   ar
    12    36    37   ar
    13    36    35   ar
    14    27    26    1
    15     9    12    1
    16     9     3    1
    17     9    10    1
    18    37    38   ar
    19    13     4    1
    20    13    17   ar
    21    16    22    1
    22    16    17   ar
    23    26    22   ar
    24    26    25   ar
    25    33    31    1
    26     3     4   ar
    27     3     2   ar
    28    35    25    1
    29    35    39   ar
    30     4     5   ar
    31    22    23   ar
    32    25    24   ar
    33    17    18    1
    34    38    39   ar
    35    38    41    1
    36     2     8    1
    37     2     1   ar
    38    23    24   ar
    39    23    28    1
    40     8     7    3
    41    24    31    1
    42     5     1   ar
    43    39    40    1
    44     1     6    1
    45    28    29    3
    46    31    32    1
    47    31    34    1
    48    29    30    1
