@<TRIPOS>MOLECULE
mol_data/opt/m06hf/geoms/mol2/12di13fa13lh13eh-.out
 48 51 0 0 0
SMALL
GASTEIGER

@<TRIPOS>ATOM
      1 C           0.7078    2.2429   -1.9688 C.ar    1  LIG1        0.1102
      2 C           1.7891    1.8895   -1.2299 C.ar    1  LIG1        0.0929
      3 C           2.0309    2.9515   -0.2774 C.ar    1  LIG1        0.0142
      4 C           1.0694    3.8731   -0.5496 C.ar    1  LIG1        0.1586
      5 O           0.2673    3.4431   -1.5686 O.2     1  LIG1       -0.4598
      6 H           0.1781    1.7554   -2.7682 H       1  LIG1        0.1043
      7 N           3.1533   -0.2942   -1.4300 N.1     1  LIG1       -0.1908
      8 C           2.5401    0.6726   -1.3522 C.1     1  LIG1        0.1026
      9 C           3.1022    2.9678    0.7796 C.3     1  LIG1       -0.0348
     10 H           2.8572    3.7016    1.5439 H       1  LIG1        0.0279
     11 H           4.0623    3.2377    0.3381 H       1  LIG1        0.0279
     12 H           3.1864    1.9766    1.2256 H       1  LIG1        0.0279
     13 C           0.7282    5.1734    0.0016 C.ar    1  LIG1        0.1248
     14 C           1.4872    6.1432    0.6242 C.ar    1  LIG1        0.1457
     15 C           0.6443    7.2436    0.9211 C.ar    1  LIG1        0.0075
     16 C          -0.6131    6.9151    0.4512 C.ar    1  LIG1        0.0706
     17 N          -0.5515    5.6692   -0.0918 N.ar    1  LIG1       -0.3476
     18 H          -1.2827    5.2232   -0.6237 H       1  LIG1        0.1661
     19 O           2.8191    6.0133    0.8804 O.3     1  LIG1       -0.5045
     20 H           3.1589    6.8352    1.2480 H       1  LIG1        0.2922
     21 H           0.8997    8.1643    1.4202 H       1  LIG1        0.0676
     22 C          -1.8359    7.7084    0.4619 C.ar    1  LIG1        0.1076
     23 C          -1.9821    9.0716    0.3098 C.ar    1  LIG1        0.1679
     24 C          -3.3681    9.3858    0.3460 C.ar    1  LIG1        0.0946
     25 C          -4.0325    8.1878    0.5275 C.ar    1  LIG1        0.0892
     26 N          -3.0890    7.1835    0.5895 N.ar    1  LIG1       -0.3474
     27 H          -3.3042    6.2084    0.7170 H       1  LIG1        0.1662
     28 O          -0.9843    9.9898    0.1353 O.3     1  LIG1       -0.4911
     29 C          -0.5173   10.0523   -1.2123 C.3     1  LIG1        0.0790
     30 H           0.2196   10.8519   -1.2481 H       1  LIG1        0.0660
     31 H          -0.0555    9.1042   -1.4928 H       1  LIG1        0.0660
     32 H          -1.3479   10.2745   -1.8857 H       1  LIG1        0.0660
     33 N          -3.9039   10.6741    0.2961 N.pl3   1  LIG1       -0.3534
     34 H          -3.1880   11.3625    0.1002 H       1  LIG1        0.1425
     35 H          -4.7027   10.7613   -0.3220 H       1  LIG1        0.1425
     36 C          -5.4580    7.9283    0.6714 C.ar    1  LIG1        0.0822
     37 C          -6.5251    8.4139   -0.0676 C.ar    1  LIG1        0.0720
     38 C          -7.7252    7.8709    0.4978 C.ar    1  LIG1        0.0584
     39 C          -7.3441    7.0716    1.5446 C.ar    1  LIG1        0.0243
     40 N          -5.9682    7.1107    1.6272 N.ar    1  LIG1       -0.3569
     41 H          -5.4257    6.7416    2.3916 H       1  LIG1        0.1655
     42 H          -7.9369    6.4965    2.2332 H       1  LIG1        0.0826
     43 C          -6.4457    9.2656   -1.2113 C.1     1  LIG1       -0.0656
     44 C          -6.4000    9.9882   -2.1746 C.1     1  LIG1       -0.1138
     45 H          -6.3607   10.6115   -3.0373 H       1  LIG1        0.1232
     46 N          -9.0237    8.1626    0.0555 N.pl3   1  LIG1       -0.3559
     47 H          -9.0192    8.6008   -0.8576 H       1  LIG1        0.1424
     48 H          -9.6408    7.3608    0.0640 H       1  LIG1        0.1424
@<TRIPOS>BOND
     1    45    44    1
     2     6     1    1
     3    44    43    3
     4     1     5   ar
     5     1     2   ar
     6    32    29    1
     7     5     4   ar
     8    31    29    1
     9     7     8    3
    10     8     2    1
    11    30    29    1
    12     2     3   ar
    13    29    28    1
    14    43    37    1
    15    47    46    1
    16    18    17    1
    17     4     3   ar
    18     4    13    1
    19    35    33    1
    20     3     9    1
    21    17    13   ar
    22    17    16   ar
    23    37    38   ar
    24    37    36   ar
    25    13    14   ar
    26    46    48    1
    27    46    38    1
    28    34    33    1
    29    28    23    1
    30    33    24    1
    31    23    24   ar
    32    23    22   ar
    33    11     9    1
    34    24    25   ar
    35    16    22    1
    36    16    15   ar
    37    22    26   ar
    38    38    39   ar
    39    25    26   ar
    40    25    36    1
    41    26    27    1
    42    14    19    1
    43    14    15   ar
    44    36    40   ar
    45     9    12    1
    46     9    10    1
    47    19    20    1
    48    15    21    1
    49    39    40   ar
    50    39    42    1
    51    40    41    1
