@<TRIPOS>MOLECULE
mol_data/opt/m06hf/geoms/mol2/12dl12ai-6fa-12lf.out
 46 49 0 0 0
SMALL
GASTEIGER

@<TRIPOS>ATOM
      1 C           0.5750    1.4964   -0.8912 C.ar    1  LIG1        0.1138
      2 C           1.9244    1.5793   -0.7097 C.ar    1  LIG1        0.1317
      3 C           2.1786    2.9374   -0.2790 C.ar    1  LIG1        0.1862
      4 C           0.9582    3.5415   -0.2433 C.ar    1  LIG1        0.2123
      5 O          -0.0042    2.6605   -0.6131 O.2     1  LIG1       -0.4547
      6 H          -0.0548    0.6838   -1.2081 H       1  LIG1        0.1044
      7 N           3.5638   -0.3752   -1.1051 N.1     1  LIG1       -0.1906
      8 C           2.8363    0.4943   -0.9279 C.1     1  LIG1        0.1060
      9 O           3.3195    3.5664    0.0491 O.3     1  LIG1       -0.4900
     10 C           4.5403    2.8461   -0.1050 C.3     1  LIG1        0.0790
     11 H           5.3246    3.5393    0.1830 H       1  LIG1        0.0660
     12 H           4.5528    1.9734    0.5492 H       1  LIG1        0.0660
     13 H           4.6725    2.5391   -1.1435 H       1  LIG1        0.0660
     14 C           0.5872    4.8942    0.1180 C.ar    1  LIG1        0.1745
     15 C           1.3059    5.9392    0.6005 C.ar    1  LIG1       -0.0091
     16 C           0.3758    7.0247    0.7747 C.ar    1  LIG1       -0.0038
     17 C          -0.8342    6.5479    0.3661 C.ar    1  LIG1        0.1438
     18 O          -0.7096    5.2477   -0.0346 O.2     1  LIG1       -0.4512
     19 H           2.3601    5.9315    0.8210 H       1  LIG1        0.0659
     20 C           0.6926    8.3844    1.3452 C.3     1  LIG1       -0.0361
     21 H          -0.1954    8.8174    1.8056 H       1  LIG1        0.0279
     22 H           1.0543    9.0602    0.5680 H       1  LIG1        0.0279
     23 H           1.4688    8.2882    2.1040 H       1  LIG1        0.0279
     24 C          -3.3443    6.4053    0.5771 C.ar    1  LIG1        0.2239
     25 C          -2.1712    7.1481    0.3001 C.ar    1  LIG1        0.0788
     26 C          -2.3311    8.4994    0.0034 C.ar    1  LIG1       -0.0438
     27 C          -3.5900    9.0807    0.0313 C.ar    1  LIG1       -0.0316
     28 C          -4.6671    8.2525    0.3519 C.ar    1  LIG1        0.1136
     29 N          -4.5435    6.9502    0.6064 N.ar    1  LIG1       -0.2092
     30 H          -1.4608    9.0880   -0.2572 H       1  LIG1        0.0627
     31 O          -3.3105    5.0883    0.8361 O.3     1  LIG1       -0.4919
     32 H          -2.4357    4.7221    0.6534 H       1  LIG1        0.2938
     33 H          -3.7528   10.1274   -0.1796 H       1  LIG1        0.0640
     34 C          -6.0273    8.8085    0.4023 C.ar    1  LIG1        0.1982
     35 C          -6.5209   10.0229    0.0230 C.ar    1  LIG1        0.2092
     36 C          -7.9314    9.9862    0.2963 C.ar    1  LIG1        0.1979
     37 C          -8.1743    8.7615    0.8269 C.ar    1  LIG1        0.1378
     38 O          -7.0265    8.0529    0.8947 O.2     1  LIG1       -0.4538
     39 H          -9.0665    8.2820    1.1880 H       1  LIG1        0.1069
     40 O          -5.8333   11.0653   -0.5105 O.3     1  LIG1       -0.4884
     41 C          -6.1931   11.3299   -1.8701 C.3     1  LIG1        0.0791
     42 H          -5.5989   12.1852   -2.1811 H       1  LIG1        0.0660
     43 H          -5.9591   10.4594   -2.4863 H       1  LIG1        0.0660
     44 H          -7.2560   11.5648   -1.9329 H       1  LIG1        0.0660
     45 O          -8.7588   11.0311    0.0258 O.3     1  LIG1       -0.5012
     46 H          -9.6624   10.8230    0.2858 H       1  LIG1        0.2924
@<TRIPOS>BOND
     1    43    41    1
     2    42    41    1
     3    44    41    1
     4    41    40    1
     5     6     1    1
     6    13    10    1
     7     7     8    3
     8     8     2    1
     9     1     2   ar
    10     1     5   ar
    11     2     3   ar
    12     5     4   ar
    13    40    35    1
    14     3     4   ar
    15     3     9    1
    16    30    26    1
    17     4    14    1
    18    33    27    1
    19    10     9    1
    20    10    11    1
    21    10    12    1
    22    18    14   ar
    23    18    17   ar
    24    26    27   ar
    25    26    25   ar
    26    35    36   ar
    27    35    34   ar
    28    45    46    1
    29    45    36    1
    30    27    28   ar
    31    14    15   ar
    32    36    37   ar
    33    25    17    1
    34    25    24   ar
    35    28    34    1
    36    28    29   ar
    37    17    16   ar
    38    34    38   ar
    39    22    20    1
    40    24    29   ar
    41    24    31    1
    42    15    16   ar
    43    15    19    1
    44    32    31    1
    45    16    20    1
    46    37    38   ar
    47    37    39    1
    48    20    21    1
    49    20    23    1
