@<TRIPOS>MOLECULE
mol_data/opt/m06hf/geoms/mol2/12dl12dl-4af-13hh.out
 49 52 0 0 0
SMALL
GASTEIGER

@<TRIPOS>ATOM
      1 C           0.5742    1.3507   -0.6262 C.ar    1  LIG1        0.1138
      2 C           1.8183    1.4377   -0.0802 C.ar    1  LIG1        0.1317
      3 C           2.0506    2.8461    0.1502 C.ar    1  LIG1        0.1862
      4 C           0.9289    3.4761   -0.2962 C.ar    1  LIG1        0.2137
      5 O           0.0353    2.5632   -0.7545 O.2     1  LIG1       -0.4546
      6 H          -0.0117    0.5093   -0.9522 H       1  LIG1        0.1044
      7 N           3.4005   -0.5162    0.5009 N.1     1  LIG1       -0.1906
      8 C           2.6881    0.3449    0.2402 C.1     1  LIG1        0.1060
      9 O           3.0966    3.4382    0.7435 O.3     1  LIG1       -0.4900
     10 C           4.3777    3.1894    0.1401 C.3     1  LIG1        0.0790
     11 H           5.0745    3.8368    0.6628 H       1  LIG1        0.0660
     12 H           4.6530    2.1427    0.2680 H       1  LIG1        0.0660
     13 H           4.3430    3.4617   -0.9146 H       1  LIG1        0.0660
     14 C           0.5777    4.8813   -0.3260 C.ar    1  LIG1        0.1953
     15 C           1.3450    6.0095   -0.3857 C.ar    1  LIG1        0.1428
     16 C           0.4191    7.1134   -0.3568 C.ar    1  LIG1        0.1838
     17 C          -0.8299    6.5727   -0.2854 C.ar    1  LIG1        0.1787
     18 O          -0.7186    5.2170   -0.2675 O.2     1  LIG1       -0.4465
     19 N           3.9018    6.2121   -0.6470 N.1     1  LIG1       -0.1906
     20 C           2.7658    6.1001   -0.5238 C.1     1  LIG1        0.1068
     21 O           0.7480    8.4245   -0.4047 O.3     1  LIG1       -0.4901
     22 C           1.1793    8.9503    0.8581 C.3     1  LIG1        0.0790
     23 H           1.3972   10.0003    0.6859 H       1  LIG1        0.0660
     24 H           0.3806    8.8398    1.5932 H       1  LIG1        0.0660
     25 H           2.0781    8.4301    1.1924 H       1  LIG1        0.0660
     26 C          -2.3423    8.5404   -0.3765 C.ar    1  LIG1       -0.0501
     27 C          -3.6144    9.0851   -0.2791 C.ar    1  LIG1       -0.0484
     28 C          -2.1675    7.1644   -0.2133 C.ar    1  LIG1        0.0245
     29 C          -4.7441    8.2916   -0.0363 C.ar    1  LIG1        0.0416
     30 H          -3.7588   10.1542   -0.3779 H       1  LIG1        0.0625
     31 C          -3.2731    6.3522    0.0438 C.ar    1  LIG1       -0.0087
     32 C          -4.5390    6.9115    0.1315 C.ar    1  LIG1        0.1267
     33 H          -3.1392    5.2844    0.1763 H       1  LIG1        0.0661
     34 H          -1.4865    9.1690   -0.5814 H       1  LIG1        0.0625
     35 O          -5.6331    6.1267    0.3981 O.3     1  LIG1       -0.5061
     36 H          -5.3737    5.2029    0.4785 H       1  LIG1        0.2922
     37 C          -6.0666    8.9205    0.0503 C.ar    1  LIG1        0.0728
     38 C          -6.4684   10.1851   -0.3519 C.ar    1  LIG1        0.0712
     39 C          -7.8294   10.3413    0.0219 C.ar    1  LIG1        0.0637
     40 C          -8.2212    9.1669    0.6328 C.ar    1  LIG1        0.0249
     41 N          -7.1627    8.3239    0.6307 N.ar    1  LIG1       -0.3575
     42 H          -7.1477    7.3716    0.9608 H       1  LIG1        0.1654
     43 H          -9.1727    8.8796    1.0468 H       1  LIG1        0.0826
     44 N          -5.7164   11.1921   -0.9960 N.pl3   1  LIG1       -0.3549
     45 H          -5.3555   10.8721   -1.8909 H       1  LIG1        0.1424
     46 H          -6.3374   11.9836   -1.1525 H       1  LIG1        0.1424
     47 N          -8.5530   11.5415   -0.2484 N.pl3   1  LIG1       -0.3554
     48 H          -9.4144   11.3606   -0.7522 H       1  LIG1        0.1424
     49 H          -8.7733   12.0498    0.6016 H       1  LIG1        0.1424
@<TRIPOS>BOND
     1    45    44    1
     2    46    44    1
     3    44    38    1
     4     6     1    1
     5    13    10    1
     6     5     1   ar
     7     5     4   ar
     8    48    47    1
     9    19    20    3
    10     1     2   ar
    11    34    26    1
    12    20    15    1
    13    21    16    1
    14    21    22    1
    15    15    16   ar
    16    15    14   ar
    17    30    27    1
    18    26    27   ar
    19    26    28   ar
    20    16    17   ar
    21    38    39   ar
    22    38    37   ar
    23    14     4    1
    24    14    18   ar
    25     4     3   ar
    26    17    18   ar
    27    17    28    1
    28    27    29   ar
    29    47    39    1
    30    47    49    1
    31    28    31   ar
    32     2     3   ar
    33     2     8    1
    34    29    37    1
    35    29    32   ar
    36    39    40   ar
    37    31    32   ar
    38    31    33    1
    39    37    41   ar
    40    32    35    1
    41    10    12    1
    42    10    11    1
    43    10     9    1
    44     3     9    1
    45     8     7    3
    46    35    36    1
    47    41    40   ar
    48    41    42    1
    49    40    43    1
    50    23    22    1
    51    22    25    1
    52    22    24    1
