@<TRIPOS>MOLECULE
mol_data/opt/m06hf/geoms/mol2/12dl6le-12ee13ad-.out
 49 52 0 0 0
SMALL
GASTEIGER

@<TRIPOS>ATOM
      1 C           0.2697    1.5274    0.1302 C.ar    1  LIG1        0.1137
      2 C           1.6298    1.6241    0.1333 C.ar    1  LIG1        0.1316
      3 C           1.9152    3.0407    0.1354 C.ar    1  LIG1        0.1832
      4 C           0.7032    3.6684    0.1287 C.ar    1  LIG1        0.1826
      5 O          -0.2822    2.7336    0.1348 O.2     1  LIG1       -0.4576
      6 H          -0.3860    0.6745    0.1256 H       1  LIG1        0.1044
      7 N           3.2594   -0.3768    0.1535 N.1     1  LIG1       -0.1906
      8 C           2.5342    0.5126    0.1455 C.1     1  LIG1        0.1060
      9 O           3.0999    3.6784    0.1730 O.3     1  LIG1       -0.4901
     10 C           4.2131    3.0225   -0.4394 C.3     1  LIG1        0.0790
     11 H           4.9775    3.7863   -0.5494 H       1  LIG1        0.0660
     12 H           4.5760    2.2158    0.1966 H       1  LIG1        0.0660
     13 H           3.9270    2.6325   -1.4175 H       1  LIG1        0.0660
     14 C          -0.8057    5.6303   -0.4039 C.ar    1  LIG1        0.2262
     15 C           0.3841    5.0964    0.1557 C.ar    1  LIG1        0.0836
     16 C           1.2664    5.9965    0.7212 C.ar    1  LIG1       -0.0282
     17 C           0.9831    7.3737    0.7186 C.ar    1  LIG1        0.0546
     18 C          -0.2042    7.7816    0.1141 C.ar    1  LIG1        0.1264
     19 N          -1.0774    6.9148   -0.4151 N.ar    1  LIG1       -0.2079
     20 H           2.1799    5.6412    1.1787 H       1  LIG1        0.0639
     21 O          -1.6729    4.7776   -0.9514 O.3     1  LIG1       -0.4792
     22 C          -2.8522    5.3325   -1.5323 C.3     1  LIG1        0.0804
     23 H          -3.4013    4.4814   -1.9229 H       1  LIG1        0.0660
     24 H          -3.4324    5.8564   -0.7735 H       1  LIG1        0.0660
     25 H          -2.5869    6.0276   -2.3277 H       1  LIG1        0.0660
     26 C           1.8680    8.2851    1.3928 C.1     1  LIG1       -0.0674
     27 C           2.6159    9.0193    1.9797 C.1     1  LIG1       -0.1138
     28 H           3.2714    9.6888    2.4868 H       1  LIG1        0.1232
     29 C          -0.5983    9.1998    0.0205 C.ar    1  LIG1        0.1717
     30 C           0.0541   10.3362   -0.3583 C.ar    1  LIG1        0.0880
     31 C          -0.9286   11.3992   -0.2994 C.ar    1  LIG1        0.0879
     32 C          -2.0890   10.8053    0.1005 C.ar    1  LIG1        0.1684
     33 O          -1.8937    9.4862    0.2889 O.2     1  LIG1       -0.4492
     34 C           1.4030   10.4742   -0.8080 C.1     1  LIG1       -0.0646
     35 C           2.5280   10.6083   -1.2053 C.1     1  LIG1       -0.1138
     36 H           3.5278   10.7201   -1.5559 H       1  LIG1        0.1232
     37 C          -0.7287   12.7778   -0.6122 C.1     1  LIG1       -0.0646
     38 C          -0.5584   13.9375   -0.8757 C.1     1  LIG1       -0.1138
     39 H          -0.3976   14.9639   -1.1131 H       1  LIG1        0.1232
     40 C          -3.4286   11.3030    0.3511 C.ar    1  LIG1        0.0846
     41 C          -3.9689   12.5630    0.2435 C.ar    1  LIG1       -0.0159
     42 C          -5.3355   12.4396    0.6186 C.ar    1  LIG1        0.0697
     43 C          -5.5737   11.1166    0.9389 C.ar    1  LIG1        0.0197
     44 N          -4.4133   10.4461    0.7713 N.ar    1  LIG1       -0.3570
     45 H          -4.2639    9.4603    0.9297 H       1  LIG1        0.1655
     46 H          -6.4784   10.6363    1.2682 H       1  LIG1        0.0820
     47 H          -3.4534   13.4555   -0.0644 H       1  LIG1        0.0653
     48 N          -7.1010   14.3244    0.6969 N.1     1  LIG1       -0.1908
     49 C          -6.3166   13.4867    0.6631 C.1     1  LIG1        0.1007
@<TRIPOS>BOND
     1    25    22    1
     2    23    22    1
     3    36    35    1
     4    22    21    1
     5    22    24    1
     6    13    10    1
     7    35    34    3
     8    39    38    1
     9    21    14    1
    10    38    37    3
    11    34    30    1
    12    37    31    1
    13    11    10    1
    14    10     9    1
    15    10    12    1
    16    19    14   ar
    17    19    18   ar
    18    14    15   ar
    19    30    31   ar
    20    30    29   ar
    21    31    32   ar
    22    47    41    1
    23    29    18    1
    24    29    33   ar
    25    32    33   ar
    26    32    40    1
    27    18    17   ar
    28     6     1    1
    29     4     5   ar
    30     4     3   ar
    31     4    15    1
    32     1     2   ar
    33     1     5   ar
    34     2     3   ar
    35     2     8    1
    36     3     9    1
    37     8     7    3
    38    15    16   ar
    39    41    40   ar
    40    41    42   ar
    41    40    44   ar
    42    42    49    1
    43    42    43   ar
    44    49    48    3
    45    17    16   ar
    46    17    26    1
    47    16    20    1
    48    44    45    1
    49    44    43   ar
    50    43    46    1
    51    26    27    3
    52    27    28    1
