@<TRIPOS>MOLECULE
mol_data/opt/m06hf/geoms/mol2/12dl12hf-13hi-13fl-.out
 50 53 0 0 0
SMALL
GASTEIGER

@<TRIPOS>ATOM
      1 C           0.1494    1.4180   -0.4640 C.ar    1  LIG1        0.1138
      2 C           1.5077    1.4045   -0.4830 C.ar    1  LIG1        0.1317
      3 C           1.9192    2.7865   -0.4658 C.ar    1  LIG1        0.1862
      4 C           0.7714    3.5218   -0.4305 C.ar    1  LIG1        0.2143
      5 O          -0.2938    2.6824   -0.4355 O.2     1  LIG1       -0.4546
      6 H          -0.5864    0.6336   -0.4703 H       1  LIG1        0.1044
      7 N           3.0744   -0.6449   -0.5031 N.1     1  LIG1       -0.1906
      8 C           2.3692    0.2600   -0.5034 C.1     1  LIG1        0.1060
      9 O           3.1986    3.2406   -0.4868 O.3     1  LIG1       -0.4900
     10 C           3.7979    3.3192    0.8161 C.3     1  LIG1        0.0790
     11 H           4.8204    3.6498    0.6555 H       1  LIG1        0.0660
     12 H           3.2553    4.0466    1.4205 H       1  LIG1        0.0660
     13 H           3.7869    2.3345    1.2848 H       1  LIG1        0.0660
     14 C           0.5254    4.9459   -0.3922 C.ar    1  LIG1        0.1986
     15 C           1.3675    6.0188   -0.4718 C.ar    1  LIG1        0.1170
     16 C           0.5214    7.1802   -0.3544 C.ar    1  LIG1        0.1861
     17 C          -0.7514    6.7197   -0.2192 C.ar    1  LIG1        0.1968
     18 O          -0.7669    5.3602   -0.2360 O.2     1  LIG1       -0.4443
     19 N           2.7429    6.0948   -0.5821 N.pl3   1  LIG1       -0.3521
     20 H           3.1856    5.2941   -1.0149 H       1  LIG1        0.1425
     21 H           3.0555    6.9940   -0.9231 H       1  LIG1        0.1425
     22 O           0.9986    8.4342   -0.4085 O.3     1  LIG1       -0.5019
     23 H           0.2256    9.0625   -0.2879 H       1  LIG1        0.2924
     24 C          -2.0181    7.4089   -0.0797 C.ar    1  LIG1        0.1075
     25 C          -2.3020    8.7572   -0.0050 C.ar    1  LIG1        0.0570
     26 C          -3.7128    8.9077    0.1215 C.ar    1  LIG1       -0.0023
     27 C          -4.2375    7.6324    0.1100 C.ar    1  LIG1        0.0719
     28 N          -3.2006    6.7398   -0.0065 N.ar    1  LIG1       -0.3487
     29 H          -3.2914    5.7442   -0.1432 H       1  LIG1        0.1661
     30 N          -1.2979    9.7866   -0.0375 N.pl3   1  LIG1       -0.3560
     31 H          -1.4916   10.4493   -0.7859 H       1  LIG1        0.1424
     32 H          -1.2847   10.3063    0.8379 H       1  LIG1        0.1424
     33 C          -4.4818   10.1969    0.2497 C.3     1  LIG1       -0.0359
     34 H          -5.4368   10.0083    0.7393 H       1  LIG1        0.0279
     35 H          -4.6900   10.6245   -0.7321 H       1  LIG1        0.0279
     36 H          -3.9164   10.9214    0.8395 H       1  LIG1        0.0279
     37 C          -5.6230    7.1880    0.2064 C.ar    1  LIG1        0.1090
     38 C          -6.7543    7.6765   -0.3993 C.ar    1  LIG1        0.1858
     39 C          -7.8463    6.8662    0.0143 C.ar    1  LIG1        0.1793
     40 C          -7.3570    5.8960    0.8566 C.ar    1  LIG1        0.0482
     41 N          -6.0060    6.1001    0.9577 N.ar    1  LIG1       -0.3535
     42 H          -5.4024    5.6408    1.6196 H       1  LIG1        0.1656
     43 H          -7.8505    5.0983    1.3814 H       1  LIG1        0.0845
     44 O          -6.8303    8.7273   -1.2610 O.3     1  LIG1       -0.5019
     45 H          -7.7262    8.7503   -1.6200 H       1  LIG1        0.2924
     46 O          -9.1005    7.1036   -0.4575 O.3     1  LIG1       -0.4900
     47 C         -10.0787    6.1691   -0.0433 C.3     1  LIG1        0.0790
     48 H         -11.0132    6.4677   -0.5099 H       1  LIG1        0.0660
     49 H          -9.8000    5.1634   -0.3698 H       1  LIG1        0.0660
     50 H         -10.1830    6.1898    1.0450 H       1  LIG1        0.0660
@<TRIPOS>BOND
     1    45    44    1
     2    44    38    1
     3    20    19    1
     4    21    19    1
     5    31    30    1
     6    35    33    1
     7    19    15    1
     8    48    47    1
     9     8     7    3
    10     8     2    1
    11     9     3    1
    12     9    10    1
    13     2     3   ar
    14     2     1   ar
    15    15    14   ar
    16    15    16   ar
    17     6     1    1
    18     3     4   ar
    19     1     5   ar
    20    46    47    1
    21    46    39    1
    22     5     4   ar
    23     4    14    1
    24    22    16    1
    25    22    23    1
    26    38    39   ar
    27    38    37   ar
    28    14    18   ar
    29    49    47    1
    30    16    17   ar
    31    18    17   ar
    32    17    24    1
    33    29    28    1
    34    24    28   ar
    35    24    25   ar
    36    47    50    1
    37    30    25    1
    38    30    32    1
    39    28    27   ar
    40    25    26   ar
    41    39    40   ar
    42    27    26   ar
    43    27    37    1
    44    26    33    1
    45    37    41   ar
    46    33    34    1
    47    33    36    1
    48    11    10    1
    49    10    13    1
    50    10    12    1
    51    40    41   ar
    52    40    43    1
    53    41    42    1
