@<TRIPOS>MOLECULE
mol_data/opt/m06hf/geoms/mol2/12ea12ea-12ea12ea.out
 38 41 0 0 0
SMALL
GASTEIGER

@<TRIPOS>ATOM
      1 C           0.2390    1.7421    0.0002 C.ar    1  LIG1        0.1081
      2 C           1.6004    1.7891   -0.0003 C.ar    1  LIG1        0.0630
      3 C           1.9471    3.1870   -0.0004 C.ar    1  LIG1        0.0027
      4 C           0.7617    3.8496    0.0001 C.ar    1  LIG1        0.1721
      5 O          -0.2719    2.9820    0.0004 O.2     1  LIG1       -0.4585
      6 H          -0.4570    0.9228    0.0005 H       1  LIG1        0.1042
      7 C           2.4905    0.6653   -0.0006 C.1     1  LIG1       -0.0665
      8 C           3.2391   -0.2735   -0.0009 C.1     1  LIG1       -0.1138
      9 H           3.9028   -1.1068   -0.0010 H       1  LIG1        0.1232
     10 H           2.9307    3.6240   -0.0007 H       1  LIG1        0.0669
     11 C           0.4674    5.2687    0.0002 C.ar    1  LIG1        0.1860
     12 C          -0.6884    6.0039    0.0004 C.ar    1  LIG1        0.0741
     13 C          -0.2728    7.3814    0.0003 C.ar    1  LIG1        0.0035
     14 C           1.0855    7.3562    0.0001 C.ar    1  LIG1        0.1732
     15 O           1.5358    6.0834    0.0000 O.2     1  LIG1       -0.4473
     16 C          -2.0328    5.5128    0.0005 C.1     1  LIG1       -0.0657
     17 C          -3.1702    5.1283    0.0007 C.1     1  LIG1       -0.1138
     18 H          -4.1786    4.7849    0.0002 H       1  LIG1        0.1232
     19 H          -0.9058    8.2514    0.0005 H       1  LIG1        0.0669
     20 C           2.0734    8.4137    0.0000 C.ar    1  LIG1        0.1860
     21 C           3.4429    8.4176    0.0001 C.ar    1  LIG1        0.0741
     22 C           3.8284    9.8039   -0.0000 C.ar    1  LIG1        0.0035
     23 C           2.6674   10.5102   -0.0002 C.ar    1  LIG1        0.1731
     24 O           1.6044    9.6724   -0.0002 O.2     1  LIG1       -0.4473
     25 C           4.3178    7.2849    0.0004 C.1     1  LIG1       -0.0657
     26 C           5.0754    6.3529    0.0006 C.1     1  LIG1       -0.1138
     27 H           5.7495    5.5276    0.0010 H       1  LIG1        0.1232
     28 H           4.8288   10.1995   -0.0000 H       1  LIG1        0.0669
     29 C           2.3837   11.9340   -0.0005 C.ar    1  LIG1        0.1850
     30 C           3.2041   13.0289   -0.0004 C.ar    1  LIG1        0.0734
     31 C           2.3257   14.1727   -0.0008 C.ar    1  LIG1       -0.0077
     32 C           1.0703   13.6720   -0.0010 C.ar    1  LIG1        0.0939
     33 O           1.0986   12.3206   -0.0008 O.2     1  LIG1       -0.4586
     34 H           0.0956   14.1263   -0.0013 H       1  LIG1        0.1030
     35 C           4.6342   13.0179   -0.0000 C.1     1  LIG1       -0.0658
     36 C           5.8364   13.0114    0.0003 C.1     1  LIG1       -0.1138
     37 H           6.9022   13.0144    0.0003 H       1  LIG1        0.1232
     38 H           2.6238   15.2064   -0.0008 H       1  LIG1        0.0661
@<TRIPOS>BOND
     1    34    32    1
     2     9     8    1
     3    32    33   ar
     4    32    31   ar
     5     8     7    3
     6    33    29   ar
     7    38    31    1
     8    31    30   ar
     9    10     3    1
    10     7     2    1
    11    29    30   ar
    12    29    23    1
    13    30    35    1
    14     3     2   ar
    15     3     4   ar
    16     2     1   ar
    17    23    24   ar
    18    23    22   ar
    19    24    20   ar
    20    22    28    1
    21    22    21   ar
    22    35    36    3
    23    20    21   ar
    24    20    14    1
    25    15    14   ar
    26    15    11   ar
    27     4    11    1
    28     4     5   ar
    29    21    25    1
    30    14    13   ar
    31    18    17    1
    32    11    12   ar
    33     1     5   ar
    34     1     6    1
    35    36    37    1
    36    13    12   ar
    37    13    19    1
    38    12    16    1
    39    25    26    3
    40    16    17    3
    41    26    27    1
