@<TRIPOS>MOLECULE
mol_data/opt/m06hf/geoms/mol2/12ea4ai-4ea-4ad.out
 47 50 0 0 0
SMALL
GASTEIGER

@<TRIPOS>ATOM
      1 C           0.7992    1.6722    0.5720 C.ar    1  LIG1        0.1079
      2 C           1.6733    1.6090   -0.4680 C.ar    1  LIG1        0.0629
      3 C           1.7794    2.9553   -0.9730 C.ar    1  LIG1       -0.0004
      4 C           0.9622    3.7147   -0.1974 C.ar    1  LIG1        0.1360
      5 O           0.3699    2.9321    0.7388 O.2     1  LIG1       -0.4617
      6 H           0.4155    0.9263    1.2451 H       1  LIG1        0.1042
      7 C           2.3419    0.4358   -0.9502 C.1     1  LIG1       -0.0665
      8 C           2.9050   -0.5439   -1.3576 C.1     1  LIG1       -0.1138
      9 H           3.4045   -1.4128   -1.7188 H       1  LIG1        0.1232
     10 H           2.3878    3.2757   -1.8005 H       1  LIG1        0.0668
     11 C           1.1887    6.0185   -1.1125 C.ar    1  LIG1       -0.0505
     12 C           0.8496    7.3643   -1.0839 C.ar    1  LIG1       -0.0531
     13 C           0.6198    5.1461   -0.1843 C.ar    1  LIG1        0.0176
     14 C          -0.0474    7.8555   -0.1342 C.ar    1  LIG1       -0.0138
     15 H           1.2895    8.0503   -1.7968 H       1  LIG1        0.0624
     16 C          -0.2871    5.6374    0.7570 C.ar    1  LIG1       -0.0476
     17 C          -0.6329    6.9861    0.7972 C.ar    1  LIG1       -0.0420
     18 H          -0.7341    4.9502    1.4641 H       1  LIG1        0.0627
     19 H           1.8897    5.6539   -1.8515 H       1  LIG1        0.0625
     20 C          -1.6323    7.4885    1.8229 C.3     1  LIG1       -0.0391
     21 H          -2.1532    6.6474    2.2786 H       1  LIG1        0.0278
     22 H          -2.3641    8.1462    1.3519 H       1  LIG1        0.0278
     23 H          -1.1175    8.0504    2.6040 H       1  LIG1        0.0278
     24 C           0.0681   10.1839    0.8485 C.ar    1  LIG1        0.0330
     25 C          -0.2631   11.5405    0.8069 C.ar    1  LIG1       -0.0380
     26 C          -0.3911    9.3114   -0.1512 C.ar    1  LIG1       -0.0022
     27 C          -1.0432   12.0505   -0.2297 C.ar    1  LIG1       -0.0167
     28 H           0.0821   12.1882    1.6022 H       1  LIG1        0.0636
     29 C          -1.1673    9.8326   -1.1870 C.ar    1  LIG1       -0.0523
     30 C          -1.4909   11.1843   -1.2305 C.ar    1  LIG1       -0.0534
     31 H          -1.5156    9.1640   -1.9638 H       1  LIG1        0.0624
     32 C           0.9005    9.6969    1.9250 C.1     1  LIG1       -0.0690
     33 C           1.5966    9.3125    2.8262 C.1     1  LIG1       -0.1139
     34 H           2.2188    8.9669    3.6192 H       1  LIG1        0.1232
     35 H          -2.0749   11.5734   -2.0554 H       1  LIG1        0.0624
     36 C          -0.4206   14.4726    0.0095 C.ar    1  LIG1       -0.0540
     37 C          -0.7386   15.8273   -0.0185 C.ar    1  LIG1       -0.0600
     38 C          -1.3887   13.5019   -0.2669 C.ar    1  LIG1       -0.0166
     39 C          -2.0301   16.2366   -0.3282 C.ar    1  LIG1       -0.0443
     40 H           0.0238   16.5643    0.1935 H       1  LIG1        0.0618
     41 C          -2.6861   13.9091   -0.5764 C.ar    1  LIG1       -0.0366
     42 C          -2.9955   15.2685   -0.6074 C.ar    1  LIG1        0.0523
     43 H          -3.4600   13.1786   -0.7716 H       1  LIG1        0.0636
     44 H          -2.2951   17.2846   -0.3576 H       1  LIG1        0.0630
     45 H           0.5931   14.1603    0.2276 H       1  LIG1        0.0624
     46 N          -5.4195   16.0099   -1.1772 N.1     1  LIG1       -0.1909
     47 C          -4.3496   15.6816   -0.9253 C.1     1  LIG1        0.0992
@<TRIPOS>BOND
     1    35    30    1
     2    31    29    1
     3    19    11    1
     4    10     3    1
     5    15    12    1
     6     9     8    1
     7     8     7    3
     8    30    29   ar
     9    30    27   ar
    10    29    26   ar
    11    46    47    3
    12    11    12   ar
    13    11    13   ar
    14    12    14   ar
    15     3     2   ar
    16     3     4   ar
    17     7     2    1
    18    47    42    1
    19    43    41    1
    20    42    41   ar
    21    42    39   ar
    22    41    38   ar
    23     2     1   ar
    24    44    39    1
    25    39    37   ar
    26    38    27    1
    27    38    36   ar
    28    27    25   ar
    29     4    13    1
    30     4     5   ar
    31    13    16   ar
    32    26    14    1
    33    26    24   ar
    34    14    17   ar
    35    37    36   ar
    36    37    40    1
    37    36    45    1
    38     1     5   ar
    39     1     6    1
    40    16    17   ar
    41    16    18    1
    42    17    20    1
    43    25    24   ar
    44    25    28    1
    45    24    32    1
    46    22    20    1
    47    20    21    1
    48    20    23    1
    49    32    33    3
    50    33    34    1
