@<TRIPOS>MOLECULE
mol_data/opt/m06hf/geoms/mol2/12ea12ea-.out
 20 21 0 0 0
SMALL
GASTEIGER

@<TRIPOS>ATOM
      1 C           0.2215    1.8423    0.0001 C.ar    1  LIG1        0.1081
      2 C           1.5837    1.8483    0.0002 C.ar    1  LIG1        0.0630
      3 C           1.9715    3.2358    0.0001 C.ar    1  LIG1        0.0027
      4 C           0.8078    3.9352   -0.0000 C.ar    1  LIG1        0.1721
      5 O          -0.2505    3.0972    0.0000 O.2     1  LIG1       -0.4585
      6 H          -0.4994    1.0448    0.0001 H       1  LIG1        0.1042
      7 C           2.4387    0.6976    0.0003 C.1     1  LIG1       -0.0665
      8 C           3.1574   -0.2645    0.0004 C.1     1  LIG1       -0.1138
      9 H           3.7954   -1.1178   -0.0004 H       1  LIG1        0.1232
     10 H           2.9705    3.6352    0.0001 H       1  LIG1        0.0669
     11 C           0.5418    5.3623   -0.0001 C.ar    1  LIG1        0.1850
     12 C          -0.6041    6.1073   -0.0001 C.ar    1  LIG1        0.0734
     13 C          -0.1692    7.4849   -0.0002 C.ar    1  LIG1       -0.0077
     14 C           1.1812    7.4482   -0.0002 C.ar    1  LIG1        0.0939
     15 O           1.6184    6.1683   -0.0001 O.2     1  LIG1       -0.4586
     16 H           1.9395    8.2104   -0.0002 H       1  LIG1        0.1030
     17 C          -1.9556    5.6373   -0.0001 C.1     1  LIG1       -0.0658
     18 C          -3.1002    5.2736   -0.0001 C.1     1  LIG1       -0.1138
     19 H          -4.1141    4.9467   -0.0000 H       1  LIG1        0.1232
     20 H          -0.8056    8.3521   -0.0003 H       1  LIG1        0.0661
@<TRIPOS>BOND
     1     9     8    1
     2    20    13    1
     3    16    14    1
     4    13    14   ar
     5    13    12   ar
     6    14    15   ar
     7    12    17    1
     8    12    11   ar
     9    15    11   ar
    10    17    18    3
    11    18    19    1
    12    11     4    1
    13     4     5   ar
    14     4     3   ar
    15     5     1   ar
    16     3    10    1
    17     3     2   ar
    18     1     6    1
    19     1     2   ar
    20     2     7    1
    21     7     8    3
