@<TRIPOS>MOLECULE
mol_data/opt/m06hf/geoms/mol2/12ea12ea.out
 20 21 0 0 0
SMALL
GASTEIGER

@<TRIPOS>ATOM
      1 C           0.1981    1.8320   -0.0000 C.ar    1  LIG1        0.1081
      2 C           1.5589    1.8771    0.0000 C.ar    1  LIG1        0.0630
      3 C           1.9086    3.2749    0.0000 C.ar    1  LIG1        0.0027
      4 C           0.7250    3.9428   -0.0001 C.ar    1  LIG1        0.1721
      5 O          -0.3100    3.0724   -0.0001 O.2     1  LIG1       -0.4585
      6 H          -0.5009    1.0147   -0.0001 H       1  LIG1        0.1042
      7 C           2.4468    0.7517    0.0001 C.1     1  LIG1       -0.0665
      8 C           3.1938   -0.1882    0.0001 C.1     1  LIG1       -0.1138
      9 H           3.8572   -1.0214    0.0002 H       1  LIG1        0.1232
     10 H           2.8942    3.7055    0.0001 H       1  LIG1        0.0669
     11 C           0.4001    5.3597   -0.0001 C.ar    1  LIG1        0.1850
     12 C           1.1885    6.4772   -0.0001 C.ar    1  LIG1        0.0734
     13 C           0.2783    7.5964   -0.0002 C.ar    1  LIG1       -0.0077
     14 C          -0.9623    7.0598   -0.0002 C.ar    1  LIG1        0.0939
     15 O          -0.8955    5.7096   -0.0002 O.2     1  LIG1       -0.4586
     16 H          -1.9494    7.4861   -0.0003 H       1  LIG1        0.1030
     17 C           2.6188    6.5097   -0.0000 C.1     1  LIG1       -0.0658
     18 C           3.8207    6.5457    0.0001 C.1     1  LIG1       -0.1138
     19 H           4.8858    6.5844    0.0002 H       1  LIG1        0.1232
     20 H           0.5455    8.6381   -0.0002 H       1  LIG1        0.0661
@<TRIPOS>BOND
     1    16    14    1
     2    14    15   ar
     3    14    13   ar
     4    15    11   ar
     5    20    13    1
     6    13    12   ar
     7    11    12   ar
     8    11     4    1
     9    12    17    1
    10     5     4   ar
    11     5     1   ar
    12     4     3   ar
    13     6     1    1
    14     1     2   ar
    15    17    18    3
    16     2     3   ar
    17     2     7    1
    18     3    10    1
    19     7     8    3
    20    18    19    1
    21     8     9    1
