@<TRIPOS>MOLECULE
mol_data/opt/m06hf/geoms/mol2/12ea12lf4ea-4af.out
 46 49 0 0 0
SMALL
GASTEIGER

@<TRIPOS>ATOM
      1 C           0.2906    1.3702    0.3243 C.ar    1  LIG1        0.1081
      2 C           1.6193    1.3942    0.0296 C.ar    1  LIG1        0.0630
      3 C           1.9402    2.7727   -0.2466 C.ar    1  LIG1        0.0028
      4 C           0.7739    3.4506   -0.0897 C.ar    1  LIG1        0.1747
      5 O          -0.2253    2.6075    0.2534 O.2     1  LIG1       -0.4585
      6 H          -0.3801    0.5725    0.5881 H       1  LIG1        0.1042
      7 C           2.5004    0.2630    0.0002 C.1     1  LIG1       -0.0665
      8 C           3.2375   -0.6849   -0.0258 C.1     1  LIG1       -0.1138
      9 H           3.8889   -1.5276   -0.0514 H       1  LIG1        0.1232
     10 H           2.8915    3.1889   -0.5278 H       1  LIG1        0.0669
     11 C           0.4534    4.8601   -0.2131 C.ar    1  LIG1        0.2157
     12 C           1.2558    5.9288   -0.4654 C.ar    1  LIG1        0.2114
     13 C           0.3952    7.0828   -0.4716 C.ar    1  LIG1        0.2062
     14 C          -0.8663    6.6190   -0.2110 C.ar    1  LIG1        0.1820
     15 O          -0.8225    5.2638   -0.0656 O.2     1  LIG1       -0.4441
     16 O           2.5876    5.8819   -0.7032 O.3     1  LIG1       -0.4883
     17 C           3.3596    6.7202    0.1617 C.3     1  LIG1        0.0791
     18 H           4.3962    6.5783   -0.1317 H       1  LIG1        0.0660
     19 H           3.0648    7.7603    0.0297 H       1  LIG1        0.0660
     20 H           3.2143    6.4109    1.1985 H       1  LIG1        0.0660
     21 O           0.8477    8.3212   -0.7647 O.3     1  LIG1       -0.5008
     22 H           0.2829    8.9892   -0.3476 H       1  LIG1        0.2924
     23 C          -2.4491    8.5219    0.2970 C.ar    1  LIG1        0.0360
     24 C          -3.7428    9.0527    0.2702 C.ar    1  LIG1       -0.0379
     25 C          -2.2026    7.2209   -0.1717 C.ar    1  LIG1        0.0364
     26 C          -4.8154    8.2976   -0.1933 C.ar    1  LIG1       -0.0166
     27 H          -3.9063   10.0505    0.6560 H       1  LIG1        0.0636
     28 C          -3.2912    6.4608   -0.6191 C.ar    1  LIG1       -0.0492
     29 C          -4.5722    6.9887   -0.6286 C.ar    1  LIG1       -0.0533
     30 H          -3.1087    5.4558   -0.9749 H       1  LIG1        0.0625
     31 C          -1.3998    9.3269    0.8783 C.1     1  LIG1       -0.0689
     32 C          -0.5481   10.0170    1.3781 C.1     1  LIG1       -0.1139
     33 H           0.1949   10.6211    1.8467 H       1  LIG1        0.1232
     34 H          -5.3933    6.3949   -1.0104 H       1  LIG1        0.0624
     35 C          -6.4000   10.1853   -0.6428 C.ar    1  LIG1       -0.0538
     36 C          -7.6885   10.7158   -0.6445 C.ar    1  LIG1       -0.0577
     37 C          -6.1906    8.8755   -0.2112 C.ar    1  LIG1       -0.0144
     38 C          -8.7705    9.9544   -0.2256 C.ar    1  LIG1       -0.0201
     39 H          -7.8507   11.7302   -0.9848 H       1  LIG1        0.0619
     40 C          -7.2765    8.1037    0.2117 C.ar    1  LIG1       -0.0125
     41 C          -8.5590    8.6437    0.2017 C.ar    1  LIG1        0.1174
     42 H          -7.1132    7.0955    0.5773 H       1  LIG1        0.0660
     43 H          -9.7789   10.3449   -0.2180 H       1  LIG1        0.0654
     44 H          -5.5648   10.7734   -0.9994 H       1  LIG1        0.0624
     45 O          -9.6502    7.9412    0.6109 O.3     1  LIG1       -0.5067
     46 H          -9.4024    7.0516    0.8835 H       1  LIG1        0.2921
@<TRIPOS>BOND
     1    34    29    1
     2    44    35    1
     3    39    36    1
     4    30    28    1
     5    21    13    1
     6    21    22    1
     7    16    12    1
     8    16    17    1
     9    36    35   ar
    10    36    38   ar
    11    35    37   ar
    12    29    28   ar
    13    29    26   ar
    14    28    25   ar
    15    10     3    1
    16    13    12   ar
    17    13    14   ar
    18    12    11   ar
    19     3     4   ar
    20     3     2   ar
    21    38    43    1
    22    38    41   ar
    23    11     4    1
    24    11    15   ar
    25    37    26    1
    26    37    40   ar
    27    14    25    1
    28    14    15   ar
    29    26    24   ar
    30    25    23   ar
    31    18    17    1
    32     4     5   ar
    33     9     8    1
    34     8     7    3
    35     7     2    1
    36     2     1   ar
    37    19    17    1
    38    17    20    1
    39    41    40   ar
    40    41    45    1
    41    40    42    1
    42     5     1   ar
    43    24    23   ar
    44    24    27    1
    45    23    31    1
    46     1     6    1
    47    45    46    1
    48    31    32    3
    49    32    33    1
