@<TRIPOS>MOLECULE
mol_data/opt/m06hf/geoms/mol2/12ea12hi13al-12la.out
 46 49 0 0 0
SMALL
GASTEIGER

@<TRIPOS>ATOM
      1 C           0.7786    1.7351   -1.2051 C.ar    1  LIG1        0.1081
      2 C           1.8839    1.6637   -0.4150 C.ar    1  LIG1        0.0630
      3 C           2.0236    2.9688    0.1848 C.ar    1  LIG1        0.0027
      4 C           1.0001    3.7138   -0.3140 C.ar    1  LIG1        0.1727
      5 O           0.2464    2.9665   -1.1551 O.2     1  LIG1       -0.4585
      6 H           0.2835    1.0084   -1.8245 H       1  LIG1        0.1042
      7 C           2.7155    0.5132   -0.2151 C.1     1  LIG1       -0.0665
      8 C           3.4172   -0.4463   -0.0438 C.1     1  LIG1       -0.1138
      9 H           4.0372   -1.2987    0.1097 H       1  LIG1        0.1232
     10 H           2.7533    3.2744    0.9156 H       1  LIG1        0.0669
     11 C           0.6537    5.1096   -0.1370 C.ar    1  LIG1        0.1914
     12 C           1.4442    6.1967    0.0857 C.ar    1  LIG1        0.0777
     13 C           0.5588    7.3265    0.2211 C.ar    1  LIG1        0.0182
     14 C          -0.6929    6.8219    0.0343 C.ar    1  LIG1        0.1567
     15 O          -0.6543    5.4873   -0.1707 O.2     1  LIG1       -0.4481
     16 N           2.8346    6.2389    0.2173 N.pl3   1  LIG1       -0.3547
     17 H           3.2858    5.4184   -0.1717 H       1  LIG1        0.1424
     18 H           3.2343    7.0829   -0.1751 H       1  LIG1        0.1424
     19 C           0.9634    8.7393    0.5468 C.3     1  LIG1       -0.0343
     20 H           0.1591    9.2376    1.0882 H       1  LIG1        0.0279
     21 H           1.1862    9.3118   -0.3565 H       1  LIG1        0.0279
     22 H           1.8500    8.7256    1.1825 H       1  LIG1        0.0279
     23 C          -2.0146    7.4275    0.0246 C.ar    1  LIG1        0.0865
     24 C          -2.4193    8.7456   -0.1241 C.ar    1  LIG1        0.0092
     25 C          -3.8365    8.7358   -0.0578 C.ar    1  LIG1        0.1491
     26 C          -4.2487    7.4260    0.1083 C.ar    1  LIG1        0.1284
     27 N          -3.1217    6.6553    0.1620 N.ar    1  LIG1       -0.3463
     28 H          -3.1128    5.6522    0.2764 H       1  LIG1        0.1662
     29 H          -1.7721    9.5886   -0.2915 H       1  LIG1        0.0677
     30 O          -4.7012    9.7799   -0.1108 O.3     1  LIG1       -0.4929
     31 C          -4.1386   11.0190   -0.4930 C.3     1  LIG1        0.0789
     32 H          -4.9663   11.7220   -0.5570 H       1  LIG1        0.0660
     33 H          -3.4204   11.3637    0.2555 H       1  LIG1        0.0660
     34 H          -3.6491   10.9327   -1.4659 H       1  LIG1        0.0660
     35 C          -5.5763    6.8510    0.2191 C.ar    1  LIG1        0.1958
     36 C          -6.7966    7.2126   -0.2644 C.ar    1  LIG1        0.1672
     37 C          -7.7314    6.2110    0.1865 C.ar    1  LIG1        0.0187
     38 C          -6.9938    5.3166    0.8821 C.ar    1  LIG1        0.0963
     39 O          -5.6949    5.6883    0.9108 O.2     1  LIG1       -0.4575
     40 H          -7.2365    4.3998    1.3890 H       1  LIG1        0.1031
     41 O          -7.0659    8.2743   -1.0652 O.3     1  LIG1       -0.4913
     42 C          -7.7058    9.3565   -0.3924 C.3     1  LIG1        0.0790
     43 H          -7.8787   10.1208   -1.1471 H       1  LIG1        0.0660
     44 H          -8.6596    9.0294    0.0295 H       1  LIG1        0.0660
     45 H          -7.0515    9.7388    0.3909 H       1  LIG1        0.0660
     46 H          -8.7879    6.1724   -0.0183 H       1  LIG1        0.0686
@<TRIPOS>BOND
     1     6     1    1
     2    34    31    1
     3     1     5   ar
     4     1     2   ar
     5     5     4   ar
     6    43    42    1
     7    41    42    1
     8    41    36    1
     9    32    31    1
    10    31    30    1
    11    31    33    1
    12     2     7    1
    13     2     3   ar
    14    42    44    1
    15    42    45    1
    16    21    19    1
    17     4    11    1
    18     4     3   ar
    19    29    24    1
    20    36    37   ar
    21    36    35   ar
    22     7     8    3
    23    18    16    1
    24    17    16    1
    25    15    11   ar
    26    15    14   ar
    27    11    12   ar
    28    24    25   ar
    29    24    23   ar
    30    30    25    1
    31    25    26   ar
    32     8     9    1
    33    46    37    1
    34    23    14    1
    35    23    27   ar
    36    14    13   ar
    37    12    16    1
    38    12    13   ar
    39    26    27   ar
    40    26    35    1
    41    27    28    1
    42     3    10    1
    43    37    38   ar
    44    35    39   ar
    45    13    19    1
    46    19    20    1
    47    19    22    1
    48    38    39   ar
    49    38    40    1
