@<TRIPOS>MOLECULE
mol_data/opt/m06hf/geoms/mol2/12ea12ea12ea.out
 29 31 0 0 0
SMALL
GASTEIGER

@<TRIPOS>ATOM
      1 C           0.3227    1.7130   -0.0001 C.ar    1  LIG1        0.1081
      2 C           1.6811    1.8139    0.0000 C.ar    1  LIG1        0.0630
      3 C           1.9737    3.2240    0.0000 C.ar    1  LIG1        0.0027
      4 C           0.7631    3.8430   -0.0000 C.ar    1  LIG1        0.1721
      5 O          -0.2350    2.9315   -0.0001 O.2     1  LIG1       -0.4585
      6 H          -0.3419    0.8672   -0.0001 H       1  LIG1        0.1042
      7 C           2.6167    0.7277    0.0001 C.1     1  LIG1       -0.0665
      8 C           3.4070   -0.1765    0.0001 C.1     1  LIG1       -0.1138
      9 H           4.1096   -0.9776    0.0001 H       1  LIG1        0.1232
     10 H           2.9420    3.6919    0.0001 H       1  LIG1        0.0669
     11 C           0.3814    5.2438   -0.0000 C.ar    1  LIG1        0.1860
     12 C           1.1238    6.3954   -0.0000 C.ar    1  LIG1        0.0741
     13 C           0.1760    7.4755   -0.0001 C.ar    1  LIG1        0.0035
     14 C          -1.0490    6.8857   -0.0001 C.ar    1  LIG1        0.1731
     15 O          -0.9273    5.5388   -0.0001 O.2     1  LIG1       -0.4473
     16 C           2.5517    6.4850    0.0000 C.1     1  LIG1       -0.0657
     17 C           3.7509    6.5695    0.0001 C.1     1  LIG1       -0.1138
     18 H           4.8130    6.6565    0.0002 H       1  LIG1        0.1232
     19 H           0.3870    8.5301   -0.0001 H       1  LIG1        0.0669
     20 C          -2.3943    7.4310   -0.0002 C.ar    1  LIG1        0.1850
     21 C          -2.8552    8.7189   -0.0002 C.ar    1  LIG1        0.0734
     22 C          -4.2939    8.6171   -0.0003 C.ar    1  LIG1       -0.0077
     23 C          -4.5678    7.2928   -0.0003 C.ar    1  LIG1        0.0939
     24 O          -3.4247    6.5719   -0.0002 O.2     1  LIG1       -0.4586
     25 H          -5.4847    6.7311   -0.0003 H       1  LIG1        0.1030
     26 C          -2.0595    9.9072   -0.0002 C.1     1  LIG1       -0.0658
     27 C          -1.3965   10.9100   -0.0002 C.1     1  LIG1       -0.1138
     28 H          -0.8177   11.8046   -0.0001 H       1  LIG1        0.1232
     29 H          -4.9935    9.4344   -0.0003 H       1  LIG1        0.0661
@<TRIPOS>BOND
     1    29    22    1
     2    25    23    1
     3    22    23   ar
     4    22    21   ar
     5    23    24   ar
     6    21    26    1
     7    21    20   ar
     8    24    20   ar
     9    26    27    3
    10    27    28    1
    11    20    14    1
    12     6     1    1
    13    14    15   ar
    14    14    13   ar
    15     5     1   ar
    16     5     4   ar
    17    15    11   ar
    18     1     2   ar
    19    13    19    1
    20    13    12   ar
    21    11     4    1
    22    11    12   ar
    23     4     3   ar
    24    12    16    1
    25     2     3   ar
    26     2     7    1
    27     3    10    1
    28    16    17    3
    29     7     8    3
    30    17    18    1
    31     8     9    1
