@<TRIPOS>MOLECULE
mol_data/opt/m06hf/geoms/mol2/12ea12ea-12ea12ea-.out
 38 41 0 0 0
SMALL
GASTEIGER

@<TRIPOS>ATOM
      1 C           0.1895    1.7607    0.0000 C.ar    1  LIG1        0.1081
      2 C           1.5522    1.7714    0.0001 C.ar    1  LIG1        0.0630
      3 C           1.9358    3.1595    0.0001 C.ar    1  LIG1        0.0027
      4 C           0.7679    3.8537    0.0000 C.ar    1  LIG1        0.1721
      5 O          -0.2882    3.0137   -0.0000 O.2     1  LIG1       -0.4585
      6 H          -0.5283    0.9600    0.0000 H       1  LIG1        0.1042
      7 C           2.4093    0.6224    0.0001 C.1     1  LIG1       -0.0665
      8 C           3.1291   -0.3385    0.0002 C.1     1  LIG1       -0.1138
      9 H           3.7673   -1.1914    0.0003 H       1  LIG1        0.1232
     10 H           2.9297    3.5715    0.0001 H       1  LIG1        0.0669
     11 C           0.5084    5.2790   -0.0000 C.ar    1  LIG1        0.1860
     12 C          -0.6328    6.0372   -0.0000 C.ar    1  LIG1        0.0741
     13 C          -0.1899    7.4061   -0.0001 C.ar    1  LIG1        0.0035
     14 C           1.1674    7.3529   -0.0001 C.ar    1  LIG1        0.1732
     15 O           1.5934    6.0716   -0.0001 O.2     1  LIG1       -0.4473
     16 C          -1.9854    5.5705   -0.0000 C.1     1  LIG1       -0.0657
     17 C          -3.1277    5.2013   -0.0000 C.1     1  LIG1       -0.1138
     18 H          -4.1387    4.8663   -0.0005 H       1  LIG1        0.1232
     19 H          -0.8000    8.2923   -0.0001 H       1  LIG1        0.0669
     20 C           2.1695    8.3961   -0.0001 C.ar    1  LIG1        0.1860
     21 C           3.5394    8.3907   -0.0002 C.ar    1  LIG1        0.0741
     22 C           3.9327    9.7748   -0.0002 C.ar    1  LIG1        0.0035
     23 C           2.7755   10.4869   -0.0002 C.ar    1  LIG1        0.1731
     24 O           1.7092    9.6585   -0.0001 O.2     1  LIG1       -0.4473
     25 C           4.4040    7.2502   -0.0002 C.1     1  LIG1       -0.0657
     26 C           5.1529    6.3114   -0.0001 C.1     1  LIG1       -0.1138
     27 H           5.8206    5.4812   -0.0002 H       1  LIG1        0.1232
     28 H           4.9352   10.1642   -0.0002 H       1  LIG1        0.0669
     29 C           2.5099   11.9114   -0.0002 C.ar    1  LIG1        0.1850
     30 C           1.3567   12.6463   -0.0002 C.ar    1  LIG1        0.0734
     31 C           1.7807   14.0267   -0.0002 C.ar    1  LIG1       -0.0077
     32 C           3.1315   14.0010   -0.0003 C.ar    1  LIG1        0.0939
     33 O           3.5800   12.7246   -0.0002 O.2     1  LIG1       -0.4586
     34 H           3.8841   14.7688   -0.0003 H       1  LIG1        0.1030
     35 C           0.0102   12.1618   -0.0002 C.1     1  LIG1       -0.0658
     36 C          -1.1320   11.7903   -0.0001 C.1     1  LIG1       -0.1138
     37 H          -2.1456   11.4628    0.0002 H       1  LIG1        0.1232
     38 H           1.1379   14.8892   -0.0003 H       1  LIG1        0.0661
@<TRIPOS>BOND
     1    18    17    1
     2    34    32    1
     3    32    31   ar
     4    32    33   ar
     5    38    31    1
     6    31    30   ar
     7    33    29   ar
     8    30    29   ar
     9    30    35    1
    10    29    23    1
    11    28    22    1
    12    35    36    3
    13    22    23   ar
    14    22    21   ar
    15    23    24   ar
    16    27    26    1
    17    25    21    1
    18    25    26    3
    19    21    20   ar
    20    36    37    1
    21    24    20   ar
    22    20    14    1
    23    19    13    1
    24    14    13   ar
    25    14    15   ar
    26    13    12   ar
    27    15    11   ar
    28    12    11   ar
    29    12    16    1
    30    11     4    1
    31    17    16    3
    32     5     4   ar
    33     5     1   ar
    34     4     3   ar
    35     6     1    1
    36     1     2   ar
    37     3     2   ar
    38     3    10    1
    39     2     7    1
    40     7     8    3
    41     8     9    1
