@<TRIPOS>MOLECULE
mol_data/opt/m06hf/geoms/mol2/12ea12ea-12ea.out
 29 31 0 0 0
SMALL
GASTEIGER

@<TRIPOS>ATOM
      1 C           0.2032    1.8040   -0.0000 C.ar    1  LIG1        0.1081
      2 C           1.5651    1.8299   -0.0001 C.ar    1  LIG1        0.0630
      3 C           1.9334    3.2223   -0.0001 C.ar    1  LIG1        0.0027
      4 C           0.7585    3.9032   -0.0001 C.ar    1  LIG1        0.1721
      5 O          -0.2884    3.0517   -0.0001 O.2     1  LIG1       -0.4585
      6 H          -0.5056    0.9956   -0.0000 H       1  LIG1        0.1042
      7 C           2.4379    0.6925   -0.0001 C.1     1  LIG1       -0.0665
      8 C           3.1721   -0.2577   -0.0001 C.1     1  LIG1       -0.1138
      9 H           3.8222   -1.1017    0.0004 H       1  LIG1        0.1232
     10 H           2.9237    3.6440   -0.0001 H       1  LIG1        0.0669
     11 C           0.4870    5.3270   -0.0001 C.ar    1  LIG1        0.1860
     12 C          -0.6557    6.0816   -0.0001 C.ar    1  LIG1        0.0741
     13 C          -0.2160    7.4524   -0.0001 C.ar    1  LIG1        0.0035
     14 C           1.1412    7.4042   -0.0002 C.ar    1  LIG1        0.1731
     15 O           1.5691    6.1239   -0.0001 O.2     1  LIG1       -0.4473
     16 C          -2.0083    5.6137   -0.0001 C.1     1  LIG1       -0.0657
     17 C          -3.1522    5.2489   -0.0000 C.1     1  LIG1       -0.1138
     18 H          -4.1663    4.9227    0.0004 H       1  LIG1        0.1232
     19 H          -0.8353    8.3320   -0.0001 H       1  LIG1        0.0669
     20 C           2.1514    8.4433   -0.0002 C.ar    1  LIG1        0.1850
     21 C           3.5183    8.4169   -0.0002 C.ar    1  LIG1        0.0734
     22 C           3.9300    9.8015   -0.0002 C.ar    1  LIG1       -0.0077
     23 C           2.7908   10.5277   -0.0003 C.ar    1  LIG1        0.0939
     24 O           1.7108    9.7130   -0.0003 O.2     1  LIG1       -0.4586
     25 H           2.5880   11.5834   -0.0003 H       1  LIG1        0.1030
     26 C           4.3717    7.2681   -0.0001 C.1     1  LIG1       -0.0658
     27 C           5.1146    6.3241    0.0000 C.1     1  LIG1       -0.1138
     28 H           5.7751    5.4878    0.0009 H       1  LIG1        0.1232
     29 H           4.9433   10.1628   -0.0002 H       1  LIG1        0.0661
@<TRIPOS>BOND
     1    25    23    1
     2    23    24   ar
     3    23    22   ar
     4    24    20   ar
     5    29    22    1
     6    22    21   ar
     7    20    21   ar
     8    20    14    1
     9    21    26    1
    10    14    15   ar
    11    14    13   ar
    12    19    13    1
    13    15    11   ar
    14    13    12   ar
    15    10     3    1
    16     7     8    3
    17     7     2    1
    18    11    12   ar
    19    11     4    1
    20    12    16    1
    21     3     4   ar
    22     3     2   ar
    23     8     9    1
    24    26    27    3
    25     4     5   ar
    26     2     1   ar
    27    16    17    3
    28     5     1   ar
    29     1     6    1
    30    17    18    1
    31    27    28    1
