@<TRIPOS>MOLECULE
mol_data/opt/m06hf/geoms/mol2/12ea12ea12ea-12ea.out
 38 41 0 0 0
SMALL
GASTEIGER

@<TRIPOS>ATOM
      1 C           0.3630    1.6946    0.0000 C.ar    1  LIG1        0.1081
      2 C           1.7217    1.7934    0.0000 C.ar    1  LIG1        0.0630
      3 C           2.0156    3.2031    0.0000 C.ar    1  LIG1        0.0027
      4 C           0.8059    3.8236   -0.0000 C.ar    1  LIG1        0.1721
      5 O          -0.1937    2.9132   -0.0000 O.2     1  LIG1       -0.4585
      6 H          -0.3012    0.8489    0.0000 H       1  LIG1        0.1042
      7 C           2.6545    0.7050    0.0001 C.1     1  LIG1       -0.0665
      8 C           3.4410   -0.2024    0.0001 C.1     1  LIG1       -0.1138
      9 H           4.1408   -1.0059    0.0002 H       1  LIG1        0.1232
     10 H           2.9846    3.6698    0.0000 H       1  LIG1        0.0669
     11 C           0.4282    5.2252   -0.0000 C.ar    1  LIG1        0.1860
     12 C           1.1753    6.3750   -0.0000 C.ar    1  LIG1        0.0741
     13 C           0.2312    7.4575   -0.0001 C.ar    1  LIG1        0.0035
     14 C          -0.9942    6.8695   -0.0001 C.ar    1  LIG1        0.1732
     15 O          -0.8799    5.5245   -0.0001 O.2     1  LIG1       -0.4473
     16 C           2.6034    6.4573    0.0000 C.1     1  LIG1       -0.0657
     17 C           3.8029    6.5323    0.0001 C.1     1  LIG1       -0.1138
     18 H           4.8656    6.6090    0.0001 H       1  LIG1        0.1232
     19 H           0.4387    8.5136   -0.0001 H       1  LIG1        0.0669
     20 C          -2.3233    7.4412   -0.0002 C.ar    1  LIG1        0.1860
     21 C          -3.5847    6.9076   -0.0002 C.ar    1  LIG1        0.0741
     22 C          -4.4817    8.0328   -0.0003 C.ar    1  LIG1        0.0035
     23 C          -3.6891    9.1362   -0.0002 C.ar    1  LIG1        0.1731
     24 O          -2.3859    8.7837   -0.0002 O.2     1  LIG1       -0.4473
     25 C          -3.9361    5.5211   -0.0002 C.1     1  LIG1       -0.0657
     26 C          -4.2417    4.3603   -0.0002 C.1     1  LIG1       -0.1138
     27 H          -4.5028    3.3277   -0.0002 H       1  LIG1        0.1232
     28 H          -5.5571    8.0040   -0.0003 H       1  LIG1        0.0669
     29 C          -3.9932   10.5531   -0.0003 C.ar    1  LIG1        0.1850
     30 C          -3.2146   11.6772   -0.0002 C.ar    1  LIG1        0.0734
     31 C          -4.1404   12.7857   -0.0003 C.ar    1  LIG1       -0.0077
     32 C          -5.3758   12.2387   -0.0003 C.ar    1  LIG1        0.0939
     33 O          -5.2947   10.8886   -0.0003 O.2     1  LIG1       -0.4586
     34 H          -6.3664   12.6568   -0.0004 H       1  LIG1        0.1030
     35 C          -1.7853   11.7522   -0.0002 C.1     1  LIG1       -0.0658
     36 C          -0.5883   11.8532   -0.0001 C.1     1  LIG1       -0.1138
     37 H           0.4727   11.9479   -0.0001 H       1  LIG1        0.1232
     38 H          -3.8821   13.8300   -0.0003 H       1  LIG1        0.0661
@<TRIPOS>BOND
     1    34    32    1
     2    32    33   ar
     3    32    31   ar
     4    33    29   ar
     5    28    22    1
     6    31    38    1
     7    31    30   ar
     8    29    23    1
     9    29    30   ar
    10    22    23   ar
    11    22    21   ar
    12    23    24   ar
    13    30    35    1
    14    26    25    3
    15    26    27    1
    16    25    21    1
    17    21    20   ar
    18    24    20   ar
    19    20    14    1
    20    35    36    3
    21    37    36    1
    22    14    15   ar
    23    14    13   ar
    24    15    11   ar
    25    19    13    1
    26    13    12   ar
    27    11    12   ar
    28    11     4    1
    29    12    16    1
    30     5     4   ar
    31     5     1   ar
    32     4     3   ar
    33     6     1    1
    34     1     2   ar
    35     3     2   ar
    36     3    10    1
    37    16    17    3
    38     2     7    1
    39    18    17    1
    40     7     8    3
    41     8     9    1
