@<TRIPOS>MOLECULE
mol_data/opt/m06hf/geoms/mol2/12ea12ea12ea-12ea-.out
 38 41 0 0 0
SMALL
GASTEIGER

@<TRIPOS>ATOM
      1 C           0.3227    1.7022   -0.0001 C.ar    1  LIG1        0.1081
      2 C           1.6828    1.7704   -0.0001 C.ar    1  LIG1        0.0630
      3 C           2.0085    3.1734    0.0001 C.ar    1  LIG1        0.0027
      4 C           0.8125    3.8201   -0.0000 C.ar    1  LIG1        0.1721
      5 O          -0.2075    2.9327   -0.0002 O.2     1  LIG1       -0.4585
      6 H          -0.3602    0.8715   -0.0002 H       1  LIG1        0.1042
      7 C           2.5901    0.6605   -0.0001 C.1     1  LIG1       -0.0665
      8 C           3.3534   -0.2663   -0.0000 C.1     1  LIG1       -0.1138
      9 H           4.0306   -1.0889   -0.0000 H       1  LIG1        0.1232
     10 H           2.9869    3.6212    0.0002 H       1  LIG1        0.0669
     11 C           0.4678    5.2300   -0.0000 C.ar    1  LIG1        0.1860
     12 C           1.2404    6.3620    0.0000 C.ar    1  LIG1        0.0741
     13 C           0.3207    7.4656   -0.0000 C.ar    1  LIG1        0.0035
     14 C          -0.9177    6.9062   -0.0001 C.ar    1  LIG1        0.1732
     15 O          -0.8327    5.5588   -0.0001 O.2     1  LIG1       -0.4473
     16 C           2.6704    6.4121    0.0001 C.1     1  LIG1       -0.0657
     17 C           3.8719    6.4568    0.0002 C.1     1  LIG1       -0.1138
     18 H           4.9368    6.5066    0.0002 H       1  LIG1        0.1232
     19 H           0.5582    8.5149    0.0000 H       1  LIG1        0.0669
     20 C          -2.2396    7.4966   -0.0001 C.ar    1  LIG1        0.1860
     21 C          -3.5030    6.9698   -0.0001 C.ar    1  LIG1        0.0741
     22 C          -4.3953    8.0982   -0.0002 C.ar    1  LIG1        0.0035
     23 C          -3.5986    9.1989   -0.0002 C.ar    1  LIG1        0.1731
     24 O          -2.2940    8.8396   -0.0002 O.2     1  LIG1       -0.4473
     25 C          -3.8583    5.5835   -0.0001 C.1     1  LIG1       -0.0657
     26 C          -4.1599    4.4212   -0.0000 C.1     1  LIG1       -0.1138
     27 H          -4.4173    3.3873    0.0000 H       1  LIG1        0.1232
     28 H          -5.4710    8.0784   -0.0002 H       1  LIG1        0.0669
     29 C          -3.8936   10.6202   -0.0003 C.ar    1  LIG1        0.1850
     30 C          -5.0786   11.3041   -0.0003 C.ar    1  LIG1        0.0734
     31 C          -4.7210   12.7013   -0.0004 C.ar    1  LIG1       -0.0077
     32 C          -3.3698   12.7344   -0.0005 C.ar    1  LIG1        0.0939
     33 O          -2.8638   11.4812   -0.0004 O.2     1  LIG1       -0.4586
     34 H          -2.6534   13.5360   -0.0005 H       1  LIG1        0.1030
     35 C          -6.3896   10.7315   -0.0002 C.1     1  LIG1       -0.0658
     36 C          -7.4935   10.2547   -0.0001 C.1     1  LIG1       -0.1138
     37 H          -8.4757    9.8406   -0.0000 H       1  LIG1        0.1232
     38 H          -5.4010   13.5349   -0.0005 H       1  LIG1        0.0661
@<TRIPOS>BOND
     1    34    32    1
     2    38    31    1
     3    32    31   ar
     4    32    33   ar
     5    31    30   ar
     6    33    29   ar
     7    29    30   ar
     8    29    23    1
     9    30    35    1
    10    23    24   ar
    11    23    22   ar
    12     6     1    1
    13    28    22    1
    14    24    20   ar
    15    35    36    3
    16    22    21   ar
    17     5     1   ar
    18     5     4   ar
    19     1     2   ar
    20    21    20   ar
    21    21    25    1
    22    36    37    1
    23    20    14    1
    24    15    14   ar
    25    15    11   ar
    26    25    26    3
    27    14    13   ar
    28     7     2    1
    29     7     8    3
    30     2     3   ar
    31     8     9    1
    32     4    11    1
    33     4     3   ar
    34    11    12   ar
    35    26    27    1
    36    13    19    1
    37    13    12   ar
    38    12    16    1
    39     3    10    1
    40    16    17    3
    41    17    18    1
