@<TRIPOS>MOLECULE
mol_data/opt/m06hf/geoms/mol2/12ea12ea12ea12ea-.out
 38 41 0 0 0
SMALL
GASTEIGER

@<TRIPOS>ATOM
      1 C           0.4757    1.6817   -0.0001 C.ar    1  LIG1        0.1081
      2 C           1.8304    1.8138    0.0001 C.ar    1  LIG1        0.0630
      3 C           2.0895    3.2310    0.0002 C.ar    1  LIG1        0.0027
      4 C           0.8657    3.8226   -0.0000 C.ar    1  LIG1        0.1721
      5 O          -0.1127    2.8873   -0.0002 O.2     1  LIG1       -0.4585
      6 H          -0.1670    0.8194   -0.0003 H       1  LIG1        0.1042
      7 C           2.7893    0.7483    0.0002 C.1     1  LIG1       -0.0665
      8 C           3.5957   -0.1412    0.0002 C.1     1  LIG1       -0.1138
      9 H           4.3091   -0.9324    0.0003 H       1  LIG1        0.1232
     10 H           3.0458    3.7238    0.0004 H       1  LIG1        0.0669
     11 C           0.4635    5.2181   -0.0000 C.ar    1  LIG1        0.1860
     12 C           1.1959    6.3770   -0.0000 C.ar    1  LIG1        0.0741
     13 C           0.2390    7.4483   -0.0001 C.ar    1  LIG1        0.0035
     14 C          -0.9804    6.8470   -0.0001 C.ar    1  LIG1        0.1732
     15 O          -0.8469    5.5003   -0.0001 O.2     1  LIG1       -0.4473
     16 C           2.6228    6.4780    0.0000 C.1     1  LIG1       -0.0657
     17 C           3.8218    6.5628    0.0001 C.1     1  LIG1       -0.1138
     18 H           4.8845    6.6427   -0.0000 H       1  LIG1        0.1232
     19 H           0.4392    8.5056   -0.0000 H       1  LIG1        0.0669
     20 C          -2.3326    7.3691   -0.0002 C.ar    1  LIG1        0.1860
     21 C          -2.8365    8.6442   -0.0002 C.ar    1  LIG1        0.0741
     22 C          -4.2676    8.4999   -0.0002 C.ar    1  LIG1        0.0035
     23 C          -4.4984    7.1603   -0.0002 C.ar    1  LIG1        0.1731
     24 O          -3.3338    6.4798   -0.0002 O.2     1  LIG1       -0.4473
     25 C          -2.0715    9.8527   -0.0002 C.1     1  LIG1       -0.0657
     26 C          -1.4260   10.8667   -0.0002 C.1     1  LIG1       -0.1138
     27 H          -0.8599   11.7698   -0.0000 H       1  LIG1        0.1232
     28 H          -5.0001    9.2876   -0.0003 H       1  LIG1        0.0669
     29 C          -5.7095    6.3639   -0.0003 C.ar    1  LIG1        0.1850
     30 C          -5.9154    5.0124   -0.0003 C.ar    1  LIG1        0.0734
     31 C          -7.3490    4.8434   -0.0004 C.ar    1  LIG1       -0.0077
     32 C          -7.8696    6.0911   -0.0003 C.ar    1  LIG1        0.0939
     33 O          -6.8835    7.0176   -0.0003 O.2     1  LIG1       -0.4586
     34 H          -8.8766    6.4679   -0.0003 H       1  LIG1        0.1030
     35 C          -4.8986    4.0053   -0.0004 C.1     1  LIG1       -0.0658
     36 C          -4.0148    3.1920   -0.0004 C.1     1  LIG1       -0.1138
     37 H          -3.1966    2.5093   -0.0005 H       1  LIG1        0.1232
     38 H          -7.8818    3.9087   -0.0004 H       1  LIG1        0.0661
@<TRIPOS>BOND
     1    37    36    1
     2    38    31    1
     3    36    35    3
     4    31    30   ar
     5    31    32   ar
     6    35    30    1
     7    34    32    1
     8    30    29   ar
     9    32    33   ar
    10    29    33   ar
    11    29    23    1
    12    28    22    1
    13     6     1    1
    14    23    22   ar
    15    23    24   ar
    16    22    21   ar
    17     5     1   ar
    18     5     4   ar
    19    24    20   ar
    20    21    25    1
    21    21    20   ar
    22    25    26    3
    23    26    27    1
    24    20    14    1
    25     1     2   ar
    26    14    15   ar
    27    14    13   ar
    28    15    11   ar
    29    13    19    1
    30    13    12   ar
    31    11    12   ar
    32    11     4    1
    33    12    16    1
    34     4     3   ar
    35    18    17    1
    36    16    17    3
    37     2     7    1
    38     2     3   ar
    39     7     8    3
    40     8     9    1
    41     3    10    1
