@<TRIPOS>MOLECULE
mol_data/opt/m06hf/geoms/mol2/12ea12ea12ea12ea.out
 38 41 0 0 0
SMALL
GASTEIGER

@<TRIPOS>ATOM
      1 C           0.6288    1.6465   -0.0001 C.ar    1  LIG1        0.1081
      2 C           1.9800    1.8174   -0.0001 C.ar    1  LIG1        0.0630
      3 C           2.1988    3.2410   -0.0000 C.ar    1  LIG1        0.0027
      4 C           0.9573    3.7956   -0.0001 C.ar    1  LIG1        0.1721
      5 O           0.0079    2.8337   -0.0001 O.2     1  LIG1       -0.4585
      6 H           0.0087    0.7680   -0.0002 H       1  LIG1        0.1042
      7 C           2.9676    0.7781   -0.0000 C.1     1  LIG1       -0.0665
      8 C           3.7949   -0.0922   -0.0000 C.1     1  LIG1       -0.1138
      9 H           4.5264   -0.8668   -0.0000 H       1  LIG1        0.1232
     10 H           3.1400    3.7619    0.0001 H       1  LIG1        0.0669
     11 C           0.5063    5.1755   -0.0000 C.ar    1  LIG1        0.1860
     12 C           1.1947    6.3608    0.0000 C.ar    1  LIG1        0.0741
     13 C           0.1982    7.3951    0.0000 C.ar    1  LIG1        0.0035
     14 C          -0.9982    6.7485   -0.0000 C.ar    1  LIG1        0.1732
     15 O          -0.8143    5.4087   -0.0001 O.2     1  LIG1       -0.4473
     16 C           2.6172    6.5142    0.0000 C.1     1  LIG1       -0.0657
     17 C           3.8126    6.6427    0.0001 C.1     1  LIG1       -0.1138
     18 H           4.8720    6.7614    0.0005 H       1  LIG1        0.1232
     19 H           0.3583    8.4588    0.0000 H       1  LIG1        0.0669
     20 C          -2.3641    7.2345   -0.0001 C.ar    1  LIG1        0.1860
     21 C          -2.8769    8.5056   -0.0001 C.ar    1  LIG1        0.0741
     22 C          -4.3054    8.3535   -0.0002 C.ar    1  LIG1        0.0035
     23 C          -4.5296    7.0125   -0.0002 C.ar    1  LIG1        0.1731
     24 O          -3.3590    6.3351   -0.0001 O.2     1  LIG1       -0.4473
     25 C          -2.1254    9.7226   -0.0001 C.1     1  LIG1       -0.0657
     26 C          -1.4961   10.7468   -0.0001 C.1     1  LIG1       -0.1138
     27 H          -0.9441   11.6586   -0.0003 H       1  LIG1        0.1232
     28 H          -5.0441    9.1352   -0.0002 H       1  LIG1        0.0669
     29 C          -5.7509    6.2278   -0.0002 C.ar    1  LIG1        0.1850
     30 C          -7.0691    6.5948   -0.0004 C.ar    1  LIG1        0.0734
     31 C          -7.8161    5.3611   -0.0003 C.ar    1  LIG1       -0.0077
     32 C          -6.8927    4.3734   -0.0002 C.ar    1  LIG1        0.0939
     33 O          -5.6446    4.8908   -0.0001 O.2     1  LIG1       -0.4586
     34 H          -6.9602    3.3006   -0.0001 H       1  LIG1        0.1030
     35 C          -7.5815    7.9298   -0.0005 C.1     1  LIG1       -0.0658
     36 C          -8.0195    9.0491   -0.0006 C.1     1  LIG1       -0.1138
     37 H          -8.4149   10.0386   -0.0003 H       1  LIG1        0.1232
     38 H          -8.8874    5.2640   -0.0004 H       1  LIG1        0.0661
@<TRIPOS>BOND
     1    36    35    3
     2    36    37    1
     3    35    30    1
     4    38    31    1
     5    30    31   ar
     6    30    29   ar
     7    31    32   ar
     8    27    26    1
     9    29    23    1
    10    29    33   ar
    11    28    22    1
    12     6     1    1
    13    32    33   ar
    14    32    34    1
    15    22    23   ar
    16    22    21   ar
    17    23    24   ar
    18     1     5   ar
    19     1     2   ar
    20     5     4   ar
    21    24    20   ar
    22    21    25    1
    23    21    20   ar
    24    25    26    3
    25    20    14    1
    26     2     7    1
    27     2     3   ar
    28    15    14   ar
    29    15    11   ar
    30     4    11    1
    31     4     3   ar
    32     7     8    3
    33     8     9    1
    34    14    13   ar
    35    11    12   ar
    36     3    10    1
    37    13    12   ar
    38    13    19    1
    39    12    16    1
    40    16    17    3
    41    17    18    1
