@<TRIPOS>MOLECULE
mol_data/opt/m06hf/geoms/mol2/12ea.out
 11 11 0 0 0
SMALL
GASTEIGER

@<TRIPOS>ATOM
      1 C           0.1816    1.9142   -0.0002 C.ar    1  LIG1        0.1070
      2 C           1.5411    1.9076    0.0001 C.ar    1  LIG1        0.0623
      3 C           1.9400    3.2974   -0.0001 C.ar    1  LIG1       -0.0085
      4 C           0.7885    4.0056   -0.0001 C.ar    1  LIG1        0.0929
      5 O          -0.2777    3.1743    0.0000 O.2     1  LIG1       -0.4698
      6 H          -0.5461    1.1224   -0.0002 H       1  LIG1        0.1042
      7 H           0.5718    5.0586   -0.0001 H       1  LIG1        0.1029
      8 C           2.3900    0.7520    0.0004 C.1     1  LIG1       -0.0665
      9 C           3.1080   -0.2109    0.0004 C.1     1  LIG1       -0.1138
     10 H           3.7423   -1.0667    0.0000 H       1  LIG1        0.1232
     11 H           2.9472    3.6761   -0.0001 H       1  LIG1        0.0661
@<TRIPOS>BOND
     1     6     1    1
     2     1     5   ar
     3     1     2   ar
     4    11     3    1
     5     7     4    1
     6     3     4   ar
     7     3     2   ar
     8     4     5   ar
     9    10     9    1
    10     2     8    1
    11     8     9    3
