@<TRIPOS>MOLECULE
mol_data/opt/m06hf/geoms/mol2/12ea12ea-12ea-12ea-.out
 38 41 0 0 0
SMALL
GASTEIGER

@<TRIPOS>ATOM
      1 C          -0.0277    1.7424   -0.0001 C.ar    1  LIG1        0.1081
      2 C           1.3324    1.6691   -0.0000 C.ar    1  LIG1        0.0630
      3 C           1.8011    3.0313   -0.0000 C.ar    1  LIG1        0.0027
      4 C           0.6786    3.7966   -0.0000 C.ar    1  LIG1        0.1721
      5 O          -0.4267    3.0222   -0.0001 O.2     1  LIG1       -0.4585
      6 H          -0.7949    0.9890   -0.0001 H       1  LIG1        0.1042
      7 C           2.1157    0.4682   -0.0001 C.1     1  LIG1       -0.0665
      8 C           2.7691   -0.5394   -0.0001 C.1     1  LIG1       -0.1138
      9 H           3.3459   -1.4351   -0.0001 H       1  LIG1        0.1232
     10 H           2.8202    3.3768    0.0000 H       1  LIG1        0.0669
     11 C           0.4961    5.2350   -0.0000 C.ar    1  LIG1        0.1860
     12 C          -0.6078    6.0458   -0.0000 C.ar    1  LIG1        0.0741
     13 C          -0.1023    7.3926   -0.0000 C.ar    1  LIG1        0.0035
     14 C           1.2521    7.2788   -0.0000 C.ar    1  LIG1        0.1732
     15 O           1.6166    5.9758   -0.0000 O.2     1  LIG1       -0.4473
     16 C          -1.9833    5.6488   -0.0000 C.1     1  LIG1       -0.0657
     17 C          -3.1452    5.3449   -0.0000 C.1     1  LIG1       -0.1138
     18 H          -4.1743    5.0686   -0.0001 H       1  LIG1        0.1232
     19 H          -0.6757    8.3026   -0.0000 H       1  LIG1        0.0669
     20 C           2.3141    8.2653   -0.0000 C.ar    1  LIG1        0.1860
     21 C           2.2855    9.6354   -0.0001 C.ar    1  LIG1        0.0741
     22 C           3.6589   10.0576   -0.0001 C.ar    1  LIG1        0.0035
     23 C           4.3927    8.9127   -0.0000 C.ar    1  LIG1        0.1731
     24 O           3.5829    7.8293   -0.0000 O.2     1  LIG1       -0.4473
     25 C           1.1161   10.4589   -0.0001 C.1     1  LIG1       -0.0657
     26 C           0.1354   11.1538   -0.0001 C.1     1  LIG1       -0.1138
     27 H          -0.7297   11.7762   -0.0001 H       1  LIG1        0.1232
     28 H           4.0309   11.0669   -0.0001 H       1  LIG1        0.0669
     29 C           5.8243    8.6722   -0.0000 C.ar    1  LIG1        0.1850
     30 C           6.8909    9.5287   -0.0002 C.ar    1  LIG1        0.0734
     31 C           8.0638    8.6894   -0.0001 C.ar    1  LIG1       -0.0077
     32 C           7.6046    7.4179    0.0001 C.ar    1  LIG1        0.0939
     33 O           6.2532    7.4010    0.0001 O.2     1  LIG1       -0.4586
     34 H           8.0901    6.4588    0.0002 H       1  LIG1        0.1030
     35 C           6.8340   10.9576   -0.0003 C.1     1  LIG1       -0.0658
     36 C           6.7909   12.1589   -0.0005 C.1     1  LIG1       -0.1138
     37 H           6.7602   13.2240   -0.0006 H       1  LIG1        0.1232
     38 H           9.0869    9.0223   -0.0002 H       1  LIG1        0.0661
@<TRIPOS>BOND
     1    37    36    1
     2    36    35    3
     3    35    30    1
     4    30    31   ar
     5    30    29   ar
     6    38    31    1
     7    18    17    1
     8     6     1    1
     9    31    32   ar
    10    28    22    1
    11    26    27    1
    12    26    25    3
    13     1     5   ar
    14     1     2   ar
    15     5     4   ar
    16    25    21    1
    17    22    21   ar
    18    22    23   ar
    19    21    20   ar
    20     9     8    1
    21     7     8    3
    22     7     2    1
    23     2     3   ar
    24    29    23    1
    25    29    33   ar
    26    17    16    3
    27    16    12    1
    28    23    24   ar
    29     4    11    1
    30     4     3   ar
    31    12    11   ar
    32    12    13   ar
    33    19    13    1
    34    20    14    1
    35    20    24   ar
    36    11    15   ar
    37    13    14   ar
    38    14    15   ar
    39     3    10    1
    40    32    33   ar
    41    32    34    1
