@<TRIPOS>MOLECULE
mol_data/opt/m06hf/geoms/mol2/12ea12ea-12ea-12ea.out
 38 41 0 0 0
SMALL
GASTEIGER

@<TRIPOS>ATOM
      1 C          -0.0212    1.7605    0.0001 C.ar    1  LIG1        0.1081
      2 C           1.3403    1.7099   -0.0003 C.ar    1  LIG1        0.0630
      3 C           1.7850    3.0794   -0.0004 C.ar    1  LIG1        0.0027
      4 C           0.6505    3.8260   -0.0000 C.ar    1  LIG1        0.1721
      5 O          -0.4418    3.0338    0.0003 O.2     1  LIG1       -0.4585
      6 H          -0.7761    0.9947    0.0003 H       1  LIG1        0.1042
      7 C           2.1489    0.5256   -0.0007 C.1     1  LIG1       -0.0665
      8 C           2.8306   -0.4634   -0.0009 C.1     1  LIG1       -0.1138
      9 H           3.4324   -1.3430   -0.0012 H       1  LIG1        0.1232
     10 H           2.7955    3.4468   -0.0007 H       1  LIG1        0.0669
     11 C           0.4545    5.2621    0.0001 C.ar    1  LIG1        0.1860
     12 C          -0.6542    6.0661    0.0002 C.ar    1  LIG1        0.0741
     13 C          -0.1567    7.4155    0.0002 C.ar    1  LIG1        0.0035
     14 C           1.1985    7.3093    0.0000 C.ar    1  LIG1        0.1732
     15 O           1.5709    6.0091   -0.0001 O.2     1  LIG1       -0.4473
     16 C          -2.0255    5.6553    0.0004 C.1     1  LIG1       -0.0657
     17 C          -3.1818    5.3300    0.0006 C.1     1  LIG1       -0.1138
     18 H          -4.2050    5.0322    0.0007 H       1  LIG1        0.1232
     19 H          -0.7339    8.3236    0.0003 H       1  LIG1        0.0669
     20 C           2.2523    8.3041   -0.0002 C.ar    1  LIG1        0.1860
     21 C           2.2081    9.6742   -0.0004 C.ar    1  LIG1        0.0741
     22 C           3.5766   10.1102   -0.0005 C.ar    1  LIG1        0.0035
     23 C           4.3217    8.9739   -0.0003 C.ar    1  LIG1        0.1731
     24 O           3.5271    7.8825   -0.0001 O.2     1  LIG1       -0.4473
     25 C           1.0285   10.4830   -0.0006 C.1     1  LIG1       -0.0657
     26 C           0.0380   11.1639   -0.0007 C.1     1  LIG1       -0.1138
     27 H          -0.8369   11.7728   -0.0007 H       1  LIG1        0.1232
     28 H           3.9369   11.1237   -0.0007 H       1  LIG1        0.0669
     29 C           5.7583    8.7771   -0.0002 C.ar    1  LIG1        0.1850
     30 C           6.5672    7.6752    0.0003 C.ar    1  LIG1        0.0734
     31 C           7.9174    8.1886    0.0001 C.ar    1  LIG1       -0.0077
     32 C           7.8044    9.5348   -0.0005 C.ar    1  LIG1        0.0939
     33 O           6.5019    9.8983   -0.0007 O.2     1  LIG1       -0.4586
     34 H           8.5223   10.3353   -0.0009 H       1  LIG1        0.1030
     35 C           6.1871    6.2960    0.0009 C.1     1  LIG1       -0.0658
     36 C           5.9186    5.1257    0.0015 C.1     1  LIG1       -0.1138
     37 H           5.6851    4.0866    0.0020 H       1  LIG1        0.1232
     38 H           8.8200    7.6033    0.0003 H       1  LIG1        0.0661
@<TRIPOS>BOND
     1     9     8    1
     2     8     7    3
     3    34    32    1
     4    27    26    1
     5    26    25    3
     6    33    32   ar
     7    33    29   ar
     8    10     3    1
     9    28    22    1
    10     7     2    1
    11    25    21    1
    12    32    31   ar
    13    22    21   ar
    14    22    23   ar
    15    21    20   ar
    16     3     2   ar
    17     3     4   ar
    18     2     1   ar
    19    23    29    1
    20    23    24   ar
    21    29    30   ar
    22    20    24   ar
    23    20    14    1
    24    15    14   ar
    25    15    11   ar
    26     4    11    1
    27     4     5   ar
    28    14    13   ar
    29    31    30   ar
    30    31    38    1
    31     1     6    1
    32     1     5   ar
    33    11    12   ar
    34    13    12   ar
    35    13    19    1
    36    12    16    1
    37    30    35    1
    38    16    17    3
    39    17    18    1
    40    35    36    3
    41    36    37    1
