@<TRIPOS>MOLECULE
mol_data/opt/m06hf/geoms/mol2/12ed4hh13ll4hf.out
 55 58 0 0 0
SMALL
GASTEIGER

@<TRIPOS>ATOM
      1 C           0.0799    1.5710    0.8803 C.ar    1  LIG1        0.1092
      2 C           1.3252    1.3899    0.3772 C.ar    1  LIG1        0.0804
      3 C           1.7834    2.7180    0.0295 C.ar    1  LIG1        0.1128
      4 C           0.7837    3.5901    0.3653 C.ar    1  LIG1        0.1551
      5 O          -0.2428    2.8782    0.8737 O.2     1  LIG1       -0.4603
      6 H          -0.6513    0.8846    1.2679 H       1  LIG1        0.1042
      7 C           2.0380    0.1621    0.2022 C.1     1  LIG1       -0.0652
      8 C           2.6506   -0.8577    0.0437 C.1     1  LIG1       -0.1138
      9 H           3.2005   -1.7591   -0.1014 H       1  LIG1        0.1232
     10 N           4.0287    3.3308   -1.0796 N.1     1  LIG1       -0.1907
     11 C           3.0243    3.0425   -0.6027 C.1     1  LIG1        0.1042
     12 C           1.5720    5.9876    0.5549 C.ar    1  LIG1        0.0361
     13 C           1.2404    7.3439    0.4132 C.ar    1  LIG1       -0.0294
     14 C           0.5842    5.0403    0.2348 C.ar    1  LIG1        0.0409
     15 C          -0.0134    7.7668   -0.0095 C.ar    1  LIG1        0.0244
     16 H           1.9767    8.0967    0.6660 H       1  LIG1        0.0643
     17 C          -0.6754    5.4689   -0.2059 C.ar    1  LIG1       -0.0279
     18 C          -0.9946    6.8059   -0.3390 C.ar    1  LIG1        0.0347
     19 H          -1.4133    4.7165   -0.4600 H       1  LIG1        0.0644
     20 N           2.8016    5.6525    1.0922 N.pl3   1  LIG1       -0.3574
     21 H           3.2186    4.7729    0.8318 H       1  LIG1        0.1423
     22 H           3.4718    6.4060    1.1187 H       1  LIG1        0.1423
     23 N          -2.2874    7.2242   -0.7918 N.pl3   1  LIG1       -0.3574
     24 H          -2.2202    7.6586   -1.7108 H       1  LIG1        0.1423
     25 H          -2.9232    6.4362   -0.8510 H       1  LIG1        0.1423
     26 C          -0.2796    9.2110   -0.0956 C.ar    1  LIG1        0.0947
     27 C           0.5993   10.2763   -0.1654 C.ar    1  LIG1        0.1875
     28 C          -0.1648   11.4708   -0.1787 C.ar    1  LIG1        0.1875
     29 C          -1.5057   11.1171   -0.1108 C.ar    1  LIG1        0.0948
     30 N          -1.5327    9.7512   -0.0680 N.ar    1  LIG1       -0.3482
     31 H          -2.3534    9.1727    0.0694 H       1  LIG1        0.1661
     32 O           1.9640   10.2100   -0.2367 O.3     1  LIG1       -0.4895
     33 C           2.4564   10.4558   -1.5566 C.3     1  LIG1        0.0791
     34 H           3.5414   10.4103   -1.4951 H       1  LIG1        0.0660
     35 H           2.0819    9.6876   -2.2358 H       1  LIG1        0.0660
     36 H           2.1344   11.4433   -1.8927 H       1  LIG1        0.0660
     37 O           0.3737   12.7252   -0.3074 O.3     1  LIG1       -0.4895
     38 C           1.2801   13.0502    0.7589 C.3     1  LIG1        0.0791
     39 H           1.6647   14.0426    0.5324 H       1  LIG1        0.0660
     40 H           0.7346   13.0539    1.7039 H       1  LIG1        0.0660
     41 H           2.0910   12.3230    0.7894 H       1  LIG1        0.0660
     42 C          -2.9529   13.1291    0.4255 C.ar    1  LIG1        0.0341
     43 C          -4.2369   13.6908    0.4335 C.ar    1  LIG1       -0.0370
     44 C          -2.7870   11.8562   -0.1439 C.ar    1  LIG1        0.0261
     45 C          -5.3308   13.0317   -0.1003 C.ar    1  LIG1       -0.0184
     46 H          -4.3719   14.6691    0.8793 H       1  LIG1        0.0637
     47 C          -3.8939   11.2122   -0.7179 C.ar    1  LIG1       -0.0092
     48 C          -5.1564   11.7829   -0.6917 C.ar    1  LIG1        0.1176
     49 H          -3.7528   10.2535   -1.2072 H       1  LIG1        0.0661
     50 H          -6.3186   13.4711   -0.0850 H       1  LIG1        0.0655
     51 N          -1.8773   13.8009    1.0170 N.pl3   1  LIG1       -0.3575
     52 H          -1.0378   13.7658    0.4467 H       1  LIG1        0.1423
     53 H          -2.1063   14.7464    1.2924 H       1  LIG1        0.1423
     54 O          -6.2563   11.1805   -1.2384 O.3     1  LIG1       -0.5067
     55 H          -6.0318   10.3012   -1.5582 H       1  LIG1        0.2921
@<TRIPOS>BOND
     1    35    33    1
     2    36    33    1
     3    24    23    1
     4    55    54    1
     5    33    34    1
     6    33    32    1
     7    54    48    1
     8    49    47    1
     9    10    11    3
    10    25    23    1
    11    23    18    1
    12    47    48   ar
    13    47    44   ar
    14    48    45   ar
    15    11     3    1
    16    19    17    1
    17    18    17   ar
    18    18    15   ar
    19    37    28    1
    20    37    38    1
    21    32    27    1
    22    17    14   ar
    23    28    27   ar
    24    28    29   ar
    25    27    26   ar
    26    44    29    1
    27    44    42   ar
    28    29    30   ar
    29     9     8    1
    30    45    50    1
    31    45    43   ar
    32    26    30   ar
    33    26    15    1
    34    30    31    1
    35    15    13   ar
    36     3     4   ar
    37     3     2   ar
    38     8     7    3
    39     7     2    1
    40    14     4    1
    41    14    12   ar
    42     4     5   ar
    43     2     1   ar
    44    13    12   ar
    45    13    16    1
    46    42    43   ar
    47    42    51    1
    48    43    46    1
    49    52    51    1
    50    39    38    1
    51    12    20    1
    52    38    41    1
    53    38    40    1
    54    21    20    1
    55     5     1   ar
    56     1     6    1
    57    51    53    1
    58    20    22    1
