@<TRIPOS>MOLECULE
mol_data/opt/m06hf/geoms/mol2/12ed4ha-6ai-4ii.out
 52 55 0 0 0
SMALL
GASTEIGER

@<TRIPOS>ATOM
      1 C           0.3795    1.6278    0.0880 C.ar    1  LIG1        0.1092
      2 C           1.6599    1.5898   -0.3559 C.ar    1  LIG1        0.0804
      3 C           2.0486    2.9773   -0.4920 C.ar    1  LIG1        0.1128
      4 C           0.9763    3.7338   -0.1041 C.ar    1  LIG1        0.1551
      5 O          -0.0273    2.9025    0.2389 O.2     1  LIG1       -0.4603
      6 H          -0.3264    0.8545    0.3313 H       1  LIG1        0.1042
      7 C           2.4614    0.4403   -0.6422 C.1     1  LIG1       -0.0652
      8 C           3.1484   -0.5131   -0.8856 C.1     1  LIG1       -0.1138
      9 H           3.7637   -1.3550   -1.1051 H       1  LIG1        0.1232
     10 N           4.3096    3.8656   -1.3582 N.1     1  LIG1       -0.1907
     11 C           3.3000    3.4605   -0.9911 C.1     1  LIG1        0.1042
     12 C           1.6108    6.1074    0.4764 C.ar    1  LIG1        0.0359
     13 C           1.2501    7.4659    0.4540 C.ar    1  LIG1       -0.0326
     14 C           0.6967    5.1772   -0.0542 C.ar    1  LIG1        0.0392
     15 C           0.0257    7.8899   -0.0414 C.ar    1  LIG1       -0.0147
     16 H           1.9572    8.1963    0.8294 H       1  LIG1        0.0642
     17 C          -0.5438    5.6122   -0.5375 C.ar    1  LIG1       -0.0487
     18 C          -0.8895    6.9499   -0.5372 C.ar    1  LIG1       -0.0532
     19 H          -1.2350    4.8710   -0.9179 H       1  LIG1        0.0625
     20 N           2.7999    5.7401    1.0672 N.pl3   1  LIG1       -0.3574
     21 H           3.1762    4.8265    0.8733 H       1  LIG1        0.1423
     22 H           3.5059    6.4576    1.1312 H       1  LIG1        0.1423
     23 H          -1.8587    7.2693   -0.8944 H       1  LIG1        0.0624
     24 C          -0.9114    9.9385   -1.1503 C.ar    1  LIG1        0.0360
     25 C          -0.3149    9.3401   -0.0384 C.ar    1  LIG1        0.0006
     26 C          -0.0395   10.1603    1.0537 C.ar    1  LIG1       -0.0476
     27 C          -0.3677   11.5131    1.0242 C.ar    1  LIG1       -0.0239
     28 C          -0.9896   11.9965   -0.1391 C.ar    1  LIG1        0.0742
     29 N          -1.2364   11.2243   -1.1995 N.ar    1  LIG1       -0.2541
     30 H           0.4229    9.7380    1.9393 H       1  LIG1        0.0627
     31 H          -1.1121    9.3544   -2.0412 H       1  LIG1        0.0836
     32 C          -0.0422   12.4153    2.2008 C.3     1  LIG1       -0.0377
     33 H          -0.9100   12.5352    2.8513 H       1  LIG1        0.0278
     34 H           0.2569   13.4027    1.8501 H       1  LIG1        0.0278
     35 H           0.7683   11.9795    2.7848 H       1  LIG1        0.0278
     36 C          -0.8139   14.2552   -1.2311 C.ar    1  LIG1       -0.0413
     37 C          -1.2281   15.5855   -1.2961 C.ar    1  LIG1       -0.0580
     38 C          -1.3987   13.4339   -0.2584 C.ar    1  LIG1        0.0038
     39 C          -2.1966   16.0871   -0.4320 C.ar    1  LIG1       -0.0586
     40 H          -0.7820   16.2401   -2.0351 H       1  LIG1        0.0620
     41 C          -2.3692   13.9418    0.6054 C.ar    1  LIG1       -0.0494
     42 C          -2.7873   15.2691    0.5304 C.ar    1  LIG1       -0.0498
     43 H          -2.8174   13.2798    1.3386 H       1  LIG1        0.0627
     44 H          -2.4974   17.1261   -0.5088 H       1  LIG1        0.0620
     45 C           0.2366   13.7178   -2.1858 C.3     1  LIG1       -0.0391
     46 H           0.6863   14.5360   -2.7477 H       1  LIG1        0.0278
     47 H          -0.2199   13.0085   -2.8761 H       1  LIG1        0.0278
     48 H           1.0205   13.1923   -1.6368 H       1  LIG1        0.0278
     49 C          -3.8744   15.8041    1.4456 C.3     1  LIG1       -0.0397
     50 H          -3.9744   15.1790    2.3327 H       1  LIG1        0.0278
     51 H          -4.8329   15.8168    0.9232 H       1  LIG1        0.0278
     52 H          -3.6421   16.8220    1.7597 H       1  LIG1        0.0278
@<TRIPOS>BOND
     1    47    45    1
     2    46    45    1
     3    45    48    1
     4    45    36    1
     5    31    24    1
     6    40    37    1
     7    10    11    3
     8    37    36   ar
     9    37    39   ar
    10    36    38   ar
    11    29    24   ar
    12    29    28   ar
    13    24    25   ar
    14     9     8    1
    15    11     3    1
    16    19    17    1
    17    23    18    1
    18     8     7    3
    19     7     2    1
    20    17    18   ar
    21    17    14   ar
    22    18    15   ar
    23    44    39    1
    24     3     2   ar
    25     3     4   ar
    26    39    42   ar
    27     2     1   ar
    28    38    28    1
    29    38    41   ar
    30    28    27   ar
    31     4    14    1
    32     4     5   ar
    33    14    12   ar
    34    15    25    1
    35    15    13   ar
    36    25    26   ar
    37     1     5   ar
    38     1     6    1
    39    13    12   ar
    40    13    16    1
    41    12    20    1
    42    42    41   ar
    43    42    49    1
    44    41    43    1
    45    21    20    1
    46    51    49    1
    47    27    26   ar
    48    27    32    1
    49    26    30    1
    50    20    22    1
    51    49    52    1
    52    49    50    1
    53    34    32    1
    54    32    35    1
    55    32    33    1
