@<TRIPOS>MOLECULE
mol_data/opt/m06hf/geoms/mol2/12ee13dh12il6if.out
 51 54 0 0 0
SMALL
GASTEIGER

@<TRIPOS>ATOM
      1 C           0.4287    1.8047    0.4441 C.ar    1  LIG1        0.1092
      2 C           1.7769    1.8145    0.5907 C.ar    1  LIG1        0.0784
      3 C           2.1989    3.1724    0.2995 C.ar    1  LIG1        0.0872
      4 C           1.0570    3.8494   -0.0126 C.ar    1  LIG1        0.1687
      5 O          -0.0125    3.0244    0.0811 O.2     1  LIG1       -0.4589
      6 H          -0.3077    1.0291    0.5582 H       1  LIG1        0.1042
      7 C           2.6152    0.7199    0.9738 C.1     1  LIG1       -0.0653
      8 C           3.3228   -0.1934    1.2984 C.1     1  LIG1       -0.1138
      9 H           3.9549   -1.0011    1.5867 H       1  LIG1        0.1232
     10 C           3.5262    3.6888    0.3795 C.1     1  LIG1       -0.0646
     11 C           4.6394    4.1317    0.4484 C.1     1  LIG1       -0.1138
     12 H           5.6225    4.5409    0.4874 H       1  LIG1        0.1232
     13 C           0.7576    5.2282   -0.3616 C.ar    1  LIG1        0.1033
     14 C           1.5078    6.2355   -0.9595 C.ar    1  LIG1        0.1013
     15 C           0.6792    7.3915   -1.0571 C.ar    1  LIG1        0.0716
     16 C          -0.5394    7.0530   -0.5033 C.ar    1  LIG1        0.1052
     17 N          -0.4654    5.7398   -0.1082 N.ar    1  LIG1       -0.3468
     18 H          -1.2260    5.2240    0.3117 H       1  LIG1        0.1662
     19 N           3.8481    6.2302   -2.0336 N.1     1  LIG1       -0.1907
     20 C           2.8188    6.1767   -1.5256 C.1     1  LIG1        0.1033
     21 N           1.0449    8.6199   -1.6137 N.pl3   1  LIG1       -0.3552
     22 H           1.9387    8.5767   -2.0908 H       1  LIG1        0.1424
     23 H           0.3266    9.0030   -2.2195 H       1  LIG1        0.1424
     24 C          -1.7618    7.8213   -0.3318 C.ar    1  LIG1        0.1601
     25 C          -2.0176    9.1257   -0.0341 C.ar    1  LIG1        0.0392
     26 C          -3.4535    9.2105   -0.0171 C.ar    1  LIG1        0.1692
     27 C          -3.9567    7.9670   -0.2690 C.ar    1  LIG1        0.1792
     28 O          -2.9174    7.1205   -0.4687 O.2     1  LIG1       -0.4492
     29 C          -1.0697   10.2484    0.3003 C.3     1  LIG1       -0.0325
     30 H          -0.9398   10.3120    1.3826 H       1  LIG1        0.0280
     31 H          -1.4937   11.1886   -0.0530 H       1  LIG1        0.0280
     32 H          -0.0936   10.0816   -0.1547 H       1  LIG1        0.0280
     33 O          -4.1658   10.3473    0.2201 O.3     1  LIG1       -0.4910
     34 C          -4.4835   10.5368    1.6015 C.3     1  LIG1        0.0790
     35 H          -5.0241   11.4774    1.6642 H       1  LIG1        0.0660
     36 H          -5.1095    9.7156    1.9548 H       1  LIG1        0.0660
     37 H          -3.5673   10.5882    2.1925 H       1  LIG1        0.0660
     38 C          -5.6845    6.1199   -0.2008 C.ar    1  LIG1        0.0492
     39 C          -5.3371    7.4769   -0.3692 C.ar    1  LIG1        0.0454
     40 C          -6.3423    8.4078   -0.6268 C.ar    1  LIG1       -0.0062
     41 C          -7.6566    7.9683   -0.7108 C.ar    1  LIG1        0.1356
     42 C          -7.9116    6.6107   -0.5423 C.ar    1  LIG1        0.0693
     43 N          -6.9513    5.7266   -0.2950 N.ar    1  LIG1       -0.2558
     44 H          -6.1100    9.4566   -0.7639 H       1  LIG1        0.0662
     45 H          -8.9252    6.2261   -0.6061 H       1  LIG1        0.0867
     46 C          -4.6768    5.0287    0.1088 C.3     1  LIG1       -0.0217
     47 H          -4.0683    5.3036    0.9723 H       1  LIG1        0.0293
     48 H          -4.0149    4.8601   -0.7415 H       1  LIG1        0.0293
     49 H          -5.2395    4.1236    0.3249 H       1  LIG1        0.0293
     50 O          -8.6313    8.8818   -0.9603 O.3     1  LIG1       -0.5052
     51 H          -9.4927    8.4539   -1.0120 H       1  LIG1        0.2922
@<TRIPOS>BOND
     1    23    21    1
     2    22    21    1
     3    19    20    3
     4    21    15    1
     5    20    14    1
     6    15    14   ar
     7    15    16   ar
     8    51    50    1
     9    50    41    1
    10    14    13   ar
    11    44    40    1
    12    48    46    1
    13    41    40   ar
    14    41    42   ar
    15    40    39   ar
    16    45    42    1
    17    42    43   ar
    18    16    24    1
    19    16    17   ar
    20    28    24   ar
    21    28    27   ar
    22    39    27    1
    23    39    38   ar
    24    13    17   ar
    25    13     4    1
    26    24    25   ar
    27    43    38   ar
    28    27    26   ar
    29    38    46    1
    30    32    29    1
    31    17    18    1
    32    31    29    1
    33    25    26   ar
    34    25    29    1
    35    26    33    1
    36     4     5   ar
    37     4     3   ar
    38     5     1   ar
    39    46    49    1
    40    46    47    1
    41    33    34    1
    42     3    10    1
    43     3     2   ar
    44    29    30    1
    45    10    11    3
    46     1     6    1
    47     1     2   ar
    48    11    12    1
    49     2     7    1
    50     7     8    3
    51     8     9    1
    52    34    35    1
    53    34    36    1
    54    34    37    1
