@<TRIPOS>MOLECULE
mol_data/opt/m06hf/geoms/mol2/12ee12ee-12ee12ee-.out
 46 49 0 0 0
SMALL
GASTEIGER

@<TRIPOS>ATOM
      1 C           0.2447    1.7304    0.0903 C.ar    1  LIG1        0.1093
      2 C           1.5165    1.7610   -0.3866 C.ar    1  LIG1        0.0785
      3 C           1.8866    3.1609   -0.4309 C.ar    1  LIG1        0.0888
      4 C           0.7919    3.8358    0.0321 C.ar    1  LIG1        0.1875
      5 O          -0.1933    2.9740    0.3446 O.2     1  LIG1       -0.4573
      6 H          -0.4337    0.9204    0.2902 H       1  LIG1        0.1042
      7 C           2.3267    0.6463   -0.7720 C.1     1  LIG1       -0.0653
      8 C           3.0122   -0.2844   -1.0949 C.1     1  LIG1       -0.1138
      9 H           3.6233   -1.1080   -1.3835 H       1  LIG1        0.1232
     10 C           3.1185    3.7106   -0.8976 C.1     1  LIG1       -0.0645
     11 C           4.1460    4.1781   -1.3063 C.1     1  LIG1       -0.1138
     12 H           5.0477    4.6113   -1.6730 H       1  LIG1        0.1232
     13 C           0.5345    5.2469    0.2269 C.ar    1  LIG1        0.1885
     14 C          -0.6149    5.9542    0.4528 C.ar    1  LIG1        0.0896
     15 C          -0.2052    7.3361    0.5526 C.ar    1  LIG1        0.0896
     16 C           1.1510    7.3296    0.3732 C.ar    1  LIG1        0.1885
     17 O           1.5918    6.0746    0.1792 O.2     1  LIG1       -0.4460
     18 C          -1.9500    5.4585    0.5656 C.1     1  LIG1       -0.0645
     19 C          -3.0803    5.0657    0.6612 C.1     1  LIG1       -0.1138
     20 H          -4.0832    4.7163    0.7475 H       1  LIG1        0.1232
     21 C          -1.0396    8.4623    0.8225 C.1     1  LIG1       -0.0645
     22 C          -1.7338    9.4110    1.0663 C.1     1  LIG1       -0.1138
     23 H          -2.3320   10.2644    1.2889 H       1  LIG1        0.1232
     24 C           2.1352    8.3888    0.3803 C.ar    1  LIG1        0.1885
     25 C           3.4892    8.3817    0.5753 C.ar    1  LIG1        0.0896
     26 C           3.9000    9.7639    0.4840 C.ar    1  LIG1        0.0896
     27 C           2.7533   10.4718    0.2468 C.ar    1  LIG1        0.1885
     28 O           1.6966    9.6442    0.1846 O.2     1  LIG1       -0.4460
     29 C           4.3204    7.2548    0.8518 C.1     1  LIG1       -0.0645
     30 C           5.0117    6.3054    1.1011 C.1     1  LIG1       -0.1138
     31 H           5.6069    5.4510    1.3283 H       1  LIG1        0.1232
     32 C           5.2337   10.2593    0.6136 C.1     1  LIG1       -0.0645
     33 C           6.3629   10.6517    0.7232 C.1     1  LIG1       -0.1138
     34 H           7.3648   11.0007    0.8220 H       1  LIG1        0.1232
     35 C           2.4981   11.8834    0.0529 C.ar    1  LIG1        0.1875
     36 C           1.4088   12.5596   -0.4209 C.ar    1  LIG1        0.0888
     37 C           1.7783   13.9593   -0.3686 C.ar    1  LIG1        0.0785
     38 C           3.0446   13.9886    0.1230 C.ar    1  LIG1        0.1093
     39 O           3.4797   12.7443    0.3789 O.2     1  LIG1       -0.4573
     40 H           3.7206   14.7981    0.3329 H       1  LIG1        0.1042
     41 C           0.1824   12.0112   -0.9032 C.1     1  LIG1       -0.0645
     42 C          -0.8404   11.5447   -1.3248 C.1     1  LIG1       -0.1138
     43 H          -1.7380   11.1126   -1.7026 H       1  LIG1        0.1232
     44 C           0.9726   15.0751   -0.7602 C.1     1  LIG1       -0.0653
     45 C           0.2909   16.0067   -1.0885 C.1     1  LIG1       -0.1138
     46 H          -0.3166   16.8308   -1.3832 H       1  LIG1        0.1232
@<TRIPOS>BOND
     1    43    42    1
     2    12    11    1
     3     9     8    1
     4    46    45    1
     5    42    41    3
     6    11    10    3
     7     8     7    3
     8    45    44    3
     9    41    36    1
    10    10     3    1
    11     7     2    1
    12    44    37    1
    13     3     2   ar
    14     3     4   ar
    15    36    37   ar
    16    36    35   ar
    17     2     1   ar
    18    37    38   ar
    19     4    13    1
    20     4     5   ar
    21    35    27    1
    22    35    39   ar
    23     1     6    1
    24     1     5   ar
    25    38    40    1
    26    38    39   ar
    27    17    13   ar
    28    17    16   ar
    29    28    27   ar
    30    28    24   ar
    31    13    14   ar
    32    27    26   ar
    33    16    24    1
    34    16    15   ar
    35    24    25   ar
    36    14    15   ar
    37    14    18    1
    38    26    25   ar
    39    26    32    1
    40    15    21    1
    41    18    19    3
    42    25    29    1
    43    32    33    3
    44    19    20    1
    45    33    34    1
    46    21    22    3
    47    29    30    3
    48    22    23    1
    49    30    31    1
