@<TRIPOS>MOLECULE
mol_data/opt/m06hf/geoms/mol2/12ee6de-4ae-12id4fh-12el12df-6la.out
 96 103 0 0 0
SMALL
GASTEIGER

@<TRIPOS>ATOM
      1 C           1.7527    1.8511    2.1181 C.ar    1  LIG1        0.1092
      2 C           2.6225    1.6704    1.0901 C.ar    1  LIG1        0.0783
      3 C           2.6315    2.9228    0.3643 C.ar    1  LIG1        0.0858
      4 C           1.7620    3.7422    1.0292 C.ar    1  LIG1        0.1541
      5 O           1.2408    3.0902    2.0846 O.2     1  LIG1       -0.4603
      6 H           1.4231    1.2057    2.9126 H       1  LIG1        0.1042
      7 C           3.3728    0.4928    0.7797 C.1     1  LIG1       -0.0653
      8 C           4.0061   -0.4914    0.5148 C.1     1  LIG1       -0.1138
      9 H           4.5672   -1.3653    0.2774 H       1  LIG1        0.1232
     10 C           3.3824    3.2159   -0.8161 C.1     1  LIG1       -0.0646
     11 C           4.0174    3.4579   -1.8066 C.1     1  LIG1       -0.1138
     12 H           4.5780    3.6608   -2.6899 H       1  LIG1        0.1232
     13 C           0.0993    5.6366    1.1682 C.ar    1  LIG1        0.1514
     14 C           1.3501    5.1292    0.7919 C.ar    1  LIG1        0.0555
     15 C           2.2239    6.0236    0.1768 C.ar    1  LIG1       -0.0308
     16 C           1.8331    7.3399   -0.0532 C.ar    1  LIG1        0.0514
     17 C           0.5386    7.7401    0.3417 C.ar    1  LIG1        0.0878
     18 N          -0.2800    6.8887    0.9520 N.ar    1  LIG1       -0.2344
     19 H           3.2159    5.7023   -0.1101 H       1  LIG1        0.0638
     20 N          -1.7161    4.1526    2.3032 N.1     1  LIG1       -0.1893
     21 C          -0.9061    4.7961    1.8102 C.1     1  LIG1        0.1198
     22 C           2.7980    8.2460   -0.6255 C.1     1  LIG1       -0.0675
     23 C           3.6500    8.9547   -1.0895 C.1     1  LIG1       -0.1138
     24 H           4.4032    9.5923   -1.4924 H       1  LIG1        0.1232
     25 C           0.2698    9.8568   -1.0129 C.ar    1  LIG1       -0.0518
     26 C          -0.3008   11.1138   -1.1757 C.ar    1  LIG1       -0.0493
     27 C          -0.0033    9.1152    0.1373 C.ar    1  LIG1        0.0028
     28 C          -1.1301   11.6569   -0.1948 C.ar    1  LIG1        0.0330
     29 H          -0.1308   11.6713   -2.0875 H       1  LIG1        0.0625
     30 C          -0.8533    9.6380    1.1112 C.ar    1  LIG1       -0.0364
     31 C          -1.4068   10.9094    0.9649 C.ar    1  LIG1        0.0360
     32 H          -1.0822    9.0541    1.9921 H       1  LIG1        0.0636
     33 H           0.8963    9.4461   -1.7923 H       1  LIG1        0.0624
     34 C          -2.2333   11.4369    2.0248 C.1     1  LIG1       -0.0689
     35 C          -2.9094   11.8612    2.9220 C.1     1  LIG1       -0.1139
     36 H          -3.5159   12.2472    3.7087 H       1  LIG1        0.1232
     37 C          -1.7001   13.0004   -0.3998 C.ar    1  LIG1        0.1410
     38 C          -1.1516   14.1597   -0.8529 C.ar    1  LIG1        0.0134
     39 C          -2.2391   15.1055   -0.8346 C.ar    1  LIG1        0.1010
     40 C          -3.3470   14.4529   -0.3637 C.ar    1  LIG1        0.1568
     41 O          -3.0142   13.1811   -0.1141 O.2     1  LIG1       -0.4531
     42 C           0.2691   14.4530   -1.2564 C.3     1  LIG1       -0.0349
     43 H           0.5852   15.3981   -0.8148 H       1  LIG1        0.0279
     44 H           0.3493   14.5369   -2.3417 H       1  LIG1        0.0279
     45 H           0.9275   13.6592   -0.9066 H       1  LIG1        0.0279
     46 N          -2.1548   17.5298   -1.7130 N.1     1  LIG1       -0.1907
     47 C          -2.1873   16.4538   -1.3099 C.1     1  LIG1        0.1032
     48 C          -5.1153   16.1217    0.2660 C.ar    1  LIG1        0.1283
     49 C          -6.4556   16.4013    0.4548 C.ar    1  LIG1       -0.0070
     50 C          -4.7514   14.8318   -0.1473 C.ar    1  LIG1        0.0617
     51 C          -7.4505   15.4394    0.2484 C.ar    1  LIG1        0.0427
     52 H          -6.7236   17.3969    0.7820 H       1  LIG1        0.0662
     53 C          -5.7294   13.8631   -0.3386 C.ar    1  LIG1       -0.0261
     54 C          -7.0939   14.1281   -0.1541 C.ar    1  LIG1        0.0363
     55 H          -5.4238   12.8673   -0.6348 H       1  LIG1        0.0644
     56 O          -4.1724   17.0699    0.5804 O.3     1  LIG1       -0.5060
     57 H          -3.9037   17.5736   -0.1999 H       1  LIG1        0.2922
     58 N          -7.9904   13.0924   -0.3236 N.pl3   1  LIG1       -0.3574
     59 H          -8.9688   13.2928   -0.4678 H       1  LIG1        0.1423
     60 H          -7.6433   12.2976   -0.8372 H       1  LIG1        0.1423
     61 C          -8.8456   15.8369    0.4611 C.ar    1  LIG1        0.1567
     62 C          -9.4532   16.8697    1.1388 C.ar    1  LIG1        0.1128
     63 C         -10.8735   16.6848    0.9485 C.ar    1  LIG1        0.1848
     64 C         -11.0115   15.5798    0.1687 C.ar    1  LIG1        0.2146
     65 O          -9.7899   15.0756   -0.1196 O.2     1  LIG1       -0.4465
     66 C          -8.8546   17.8865    1.9455 C.1     1  LIG1       -0.0621
     67 C          -8.3740   18.7539    2.6251 C.1     1  LIG1       -0.1137
     68 H          -7.9421   19.5133    3.2357 H       1  LIG1        0.1232
     69 O         -11.8844   17.3901    1.4854 O.3     1  LIG1       -0.4901
     70 C         -11.9842   18.7490    1.0353 C.3     1  LIG1        0.0790
     71 H         -12.8525   19.1611    1.5400 H       1  LIG1        0.0660
     72 H         -11.0820   19.2972    1.3054 H       1  LIG1        0.0660
     73 H         -12.1397   18.7641   -0.0440 H       1  LIG1        0.0660
     74 C         -12.1409   14.8215   -0.3107 C.ar    1  LIG1        0.1953
     75 C         -13.4747   15.0893   -0.4662 C.ar    1  LIG1        0.1426
     76 C         -14.0555   13.8728   -0.9667 C.ar    1  LIG1        0.1813
     77 C         -13.0410   12.9680   -1.0807 C.ar    1  LIG1        0.1834
     78 O         -11.8873   13.5699   -0.6809 O.2     1  LIG1       -0.4463
     79 N         -14.7974   17.2731   -0.1245 N.1     1  LIG1       -0.1906
     80 C         -14.1748   16.3160   -0.2516 C.1     1  LIG1        0.1068
     81 O         -15.3532   13.6645   -1.2809 O.3     1  LIG1       -0.5023
     82 H         -15.8839   14.4365   -1.0498 H       1  LIG1        0.2923
     83 C         -11.9580   10.6884   -1.2518 C.ar    1  LIG1        0.2255
     84 C         -13.0200   11.5804   -1.5430 C.ar    1  LIG1        0.0824
     85 C         -14.0847   11.0731   -2.2776 C.ar    1  LIG1       -0.0444
     86 C         -14.0731    9.7410   -2.6931 C.ar    1  LIG1       -0.0427
     87 C         -12.9786    8.9653   -2.3558 C.ar    1  LIG1        0.0314
     88 N         -11.9441    9.4337   -1.6495 N.ar    1  LIG1       -0.2207
     89 H         -14.9170   11.7227   -2.5158 H       1  LIG1        0.0627
     90 H         -12.9148    7.9266   -2.6543 H       1  LIG1        0.0831
     91 O         -10.9227   11.1442   -0.5300 O.3     1  LIG1       -0.4792
     92 C          -9.9344   10.1898   -0.1425 C.3     1  LIG1        0.0804
     93 H          -9.2289   10.7501    0.4652 H       1  LIG1        0.0660
     94 H         -10.3938    9.3840    0.4291 H       1  LIG1        0.0660
     95 H          -9.4527    9.7687   -1.0252 H       1  LIG1        0.0660
     96 H         -14.8910    9.3256   -3.2627 H       1  LIG1        0.0633
@<TRIPOS>BOND
     1    96    86    1
     2    86    87   ar
     3    86    85   ar
     4    12    11    1
     5    90    87    1
     6    89    85    1
     7    87    88   ar
     8    44    42    1
     9    85    84   ar
    10    29    26    1
    11    11    10    3
    12    33    25    1
    13    46    47    3
    14    88    83   ar
    15    84    83   ar
    16    84    77    1
    17    24    23    1
    18    47    39    1
    19    81    82    1
    20    81    76    1
    21    42    45    1
    22    42    38    1
    23    42    43    1
    24    83    91    1
    25    26    25   ar
    26    26    28   ar
    27    23    22    3
    28    77    76   ar
    29    77    78   ar
    30    95    92    1
    31    25    27   ar
    32    76    75   ar
    33    38    39   ar
    34    38    37   ar
    35    60    58    1
    36    39    40   ar
    37    10     3    1
    38    78    74   ar
    39    55    53    1
    40    22    16    1
    41    91    92    1
    42    59    58    1
    43    75    74   ar
    44    75    80    1
    45    37    28    1
    46    37    41   ar
    47    40    50    1
    48    40    41   ar
    49    53    54   ar
    50    53    50   ar
    51    58    54    1
    52    74    64    1
    53    80    79    3
    54    57    56    1
    55    28    31   ar
    56    54    51   ar
    57    50    48   ar
    58    92    94    1
    59    92    93    1
    60    65    64   ar
    61    65    61   ar
    62    19    15    1
    63    16    15   ar
    64    16    17   ar
    65    73    70    1
    66    27    17    1
    67    27    30   ar
    68    64    63   ar
    69    15    14   ar
    70    51    49   ar
    71    51    61    1
    72    48    49   ar
    73    48    56    1
    74     9     8    1
    75    17    18   ar
    76     3     4   ar
    77     3     2   ar
    78    49    52    1
    79    61    62   ar
    80     8     7    3
    81     7     2    1
    82    14     4    1
    83    14    13   ar
    84    63    62   ar
    85    63    69    1
    86    18    13   ar
    87    31    30   ar
    88    31    34    1
    89     4     5   ar
    90    70    72    1
    91    70    69    1
    92    70    71    1
    93     2     1   ar
    94    30    32    1
    95    62    66    1
    96    13    21    1
    97    21    20    3
    98    66    67    3
    99    34    35    3
   100     5     1   ar
   101     1     6    1
   102    67    68    1
   103    35    36    1
