@<TRIPOS>MOLECULE
mol_data/opt/m06hf/geoms/mol2/12ee12ee.out
 24 25 0 0 0
SMALL
GASTEIGER

@<TRIPOS>ATOM
      1 C           0.2707    1.8503    0.5938 C.ar    1  LIG1        0.1093
      2 C           1.5677    1.8148    0.1918 C.ar    1  LIG1        0.0785
      3 C           1.9042    3.1784   -0.1664 C.ar    1  LIG1        0.0888
      4 C           0.7747    3.9054    0.0727 C.ar    1  LIG1        0.1874
      5 O          -0.2097    3.1017    0.5255 O.2     1  LIG1       -0.4573
      6 H          -0.4006    1.0844    0.9388 H       1  LIG1        0.1042
      7 C           2.4222    0.6690    0.1190 C.1     1  LIG1       -0.0653
      8 C           3.1423   -0.2895    0.0597 C.1     1  LIG1       -0.1138
      9 H           3.7847   -1.1378    0.0061 H       1  LIG1        0.1232
     10 C           3.1401    3.6370   -0.7158 C.1     1  LIG1       -0.0645
     11 C           4.1761    4.0146   -1.1910 C.1     1  LIG1       -0.1138
     12 H           5.0906    4.3588   -1.6160 H       1  LIG1        0.1232
     13 C           0.4687    5.3198   -0.0728 C.ar    1  LIG1        0.1874
     14 C           1.1966    6.4486    0.1665 C.ar    1  LIG1        0.0888
     15 C           0.3266    7.5512   -0.1920 C.ar    1  LIG1        0.0785
     16 C          -0.8395    6.9827   -0.5943 C.ar    1  LIG1        0.1093
     17 O          -0.7598    5.6447   -0.5259 O.2     1  LIG1       -0.4573
     18 H          -1.7673    7.4026   -0.9397 H       1  LIG1        0.1042
     19 C           2.5115    6.5419    0.7162 C.1     1  LIG1       -0.0645
     20 C           3.6107    6.6263    1.1919 C.1     1  LIG1       -0.1138
     21 H           4.5856    6.6905    1.6172 H       1  LIG1        0.1232
     22 C           0.6312    8.9477   -0.1193 C.1     1  LIG1       -0.0653
     23 C           0.8900   10.1183   -0.0600 C.1     1  LIG1       -0.1138
     24 H           1.1243   11.1563   -0.0067 H       1  LIG1        0.1232
@<TRIPOS>BOND
     1    12    11    1
     2    11    10    3
     3    18    16    1
     4    10     3    1
     5    16    17   ar
     6    16    15   ar
     7    17    13   ar
     8    15    22    1
     9    15    14   ar
    10     3     4   ar
    11     3     2   ar
    12    22    23    3
    13    13     4    1
    14    13    14   ar
    15    23    24    1
    16     9     8    1
    17     8     7    3
    18     4     5   ar
    19     7     2    1
    20    14    19    1
    21     2     1   ar
    22     5     1   ar
    23     1     6    1
    24    19    20    3
    25    20    21    1
