@<TRIPOS>MOLECULE
mol_data/opt/m06hf/geoms/mol2/12ee13fe6ff-4fd12ha-12ae12aa-6le-.out
 87 94 0 0 0
SMALL
GASTEIGER

@<TRIPOS>ATOM
      1 C           2.7408    4.2219   -3.2751 C.ar    1  LIG1        0.1092
      2 C           3.5501    3.4917   -2.4701 C.ar    1  LIG1        0.0784
      3 C           3.2953    3.9579   -1.1178 C.ar    1  LIG1        0.0873
      4 C           2.3610    4.9454   -1.2415 C.ar    1  LIG1        0.1710
      5 O           2.0244    5.0992   -2.5448 O.2     1  LIG1       -0.4588
      6 H           2.5816    4.2218   -4.3385 H       1  LIG1        0.1042
      7 C           4.4579    2.4586   -2.8663 C.1     1  LIG1       -0.0653
      8 C           5.2201    1.5924   -3.1970 C.1     1  LIG1       -0.1138
      9 H           5.8988    0.8239   -3.4856 H       1  LIG1        0.1232
     10 C           3.8713    3.4281    0.0763 C.1     1  LIG1       -0.0646
     11 C           4.3546    2.9580    1.0696 C.1     1  LIG1       -0.1138
     12 H           4.7797    2.5510    1.9571 H       1  LIG1        0.1232
     13 C           1.6681    5.8117   -0.3086 C.ar    1  LIG1        0.1270
     14 C           2.0038    6.2930    0.9398 C.ar    1  LIG1        0.1611
     15 C           0.9437    7.1307    1.3761 C.ar    1  LIG1        0.0922
     16 C          -0.0159    7.1440    0.3592 C.ar    1  LIG1        0.0714
     17 N           0.4477    6.3492   -0.6302 N.ar    1  LIG1       -0.3477
     18 H          -0.0465    6.1945   -1.4999 H       1  LIG1        0.1661
     19 O           3.1471    6.0446    1.6087 O.3     1  LIG1       -0.5034
     20 H           3.1281    6.5260    2.4462 H       1  LIG1        0.2923
     21 C           0.9878    7.8091    2.6325 C.1     1  LIG1       -0.0638
     22 C           1.1071    8.3449    3.7047 C.1     1  LIG1       -0.1137
     23 H           1.1961    8.8305    4.6489 H       1  LIG1        0.1232
     24 C          -2.1224    7.8298   -0.8634 C.ar    1  LIG1        0.2225
     25 C          -1.3050    7.8441    0.2881 C.ar    1  LIG1        0.0644
     26 C          -1.8012    8.5699    1.3603 C.ar    1  LIG1       -0.0038
     27 C          -3.0252    9.2388    1.2772 C.ar    1  LIG1        0.1437
     28 C          -3.7405    9.1647    0.0810 C.ar    1  LIG1        0.1196
     29 N          -3.2671    8.4529   -0.9535 N.ar    1  LIG1       -0.2087
     30 H          -1.2585    8.6295    2.2937 H       1  LIG1        0.0663
     31 O          -1.7192    7.1304   -1.9577 O.3     1  LIG1       -0.4919
     32 H          -2.4010    7.2353   -2.6354 H       1  LIG1        0.2937
     33 O          -3.4721    9.8664    2.3928 O.3     1  LIG1       -0.5046
     34 H          -3.8864   10.7087    2.1432 H       1  LIG1        0.2922
     35 C          -5.4692   11.0409    0.2882 C.ar    1  LIG1        0.1269
     36 C          -6.7422   11.5433    0.0481 C.ar    1  LIG1       -0.0076
     37 C          -5.0923    9.7609   -0.1319 C.ar    1  LIG1        0.0467
     38 C          -7.6851   10.7881   -0.6493 C.ar    1  LIG1        0.0399
     39 H          -7.0235   12.5263    0.4126 H       1  LIG1        0.0662
     40 C          -6.0351    9.0201   -0.8428 C.ar    1  LIG1       -0.0308
     41 C          -7.3113    9.5122   -1.1026 C.ar    1  LIG1        0.0633
     42 H          -5.7519    8.0425   -1.2079 H       1  LIG1        0.0638
     43 O          -4.5404   11.8008    0.9460 O.3     1  LIG1       -0.5061
     44 H          -4.8845   12.6785    1.1480 H       1  LIG1        0.2922
     45 N          -8.8512    8.0092   -2.5510 N.1     1  LIG1       -0.1908
     46 C          -8.2036    8.6908   -1.8938 C.1     1  LIG1        0.0999
     47 C          -9.0118   11.3619   -0.8651 C.ar    1  LIG1        0.1577
     48 C          -9.4141   12.6641   -0.9942 C.ar    1  LIG1        0.0717
     49 C         -10.8420   12.6290   -1.0976 C.ar    1  LIG1        0.0086
     50 C         -11.1832   11.3105   -1.0357 C.ar    1  LIG1        0.1725
     51 O         -10.0932   10.5438   -0.9075 O.2     1  LIG1       -0.4498
     52 N          -8.5928   13.8030   -0.9866 N.pl3   1  LIG1       -0.3550
     53 H          -7.7730   13.6924   -1.5747 H       1  LIG1        0.1424
     54 H          -9.0960   14.6403   -1.2517 H       1  LIG1        0.1424
     55 H         -11.5130   13.4667   -1.1873 H       1  LIG1        0.0675
     56 C         -12.4808   10.6527   -1.0804 C.ar    1  LIG1        0.1720
     57 C         -13.7102   11.0976   -1.4490 C.ar    1  LIG1        0.0034
     58 C         -14.6045    9.9960   -1.2278 C.ar    1  LIG1        0.0741
     59 C         -13.8264    8.9730   -0.7480 C.ar    1  LIG1        0.1860
     60 O         -12.5493    9.3722   -0.6576 O.2     1  LIG1       -0.4474
     61 H         -13.9688   12.0663   -1.8393 H       1  LIG1        0.0669
     62 C         -16.0139    9.9571   -1.4670 C.1     1  LIG1       -0.0657
     63 C         -17.1985    9.9339   -1.6706 C.1     1  LIG1       -0.1138
     64 H         -18.2474    9.9173   -1.8575 H       1  LIG1        0.1232
     65 C         -14.1524    7.6175   -0.3470 C.ar    1  LIG1        0.1718
     66 C         -15.3388    6.9499   -0.2647 C.ar    1  LIG1       -0.0121
     67 C         -15.0029    5.6334    0.1825 C.ar    1  LIG1       -0.0150
     68 C         -13.6474    5.6161    0.3345 C.ar    1  LIG1        0.1410
     69 O         -13.1326    6.8195    0.0176 O.2     1  LIG1       -0.4515
     70 H         -16.3087    7.3500   -0.5038 H       1  LIG1        0.0657
     71 H         -15.6684    4.8023    0.3424 H       1  LIG1        0.0656
     72 C         -11.4963    4.3125    0.1442 C.ar    1  LIG1        0.2255
     73 C         -12.7363    4.5545    0.7876 C.ar    1  LIG1        0.0798
     74 C         -13.0785    3.7261    1.8378 C.ar    1  LIG1       -0.0291
     75 C         -12.2084    2.6966    2.2289 C.ar    1  LIG1        0.0437
     76 C         -11.0111    2.5663    1.5343 C.ar    1  LIG1        0.0468
     77 N         -10.6662    3.3565    0.5173 N.ar    1  LIG1       -0.2195
     78 H         -14.0086    3.8804    2.3689 H       1  LIG1        0.0639
     79 H         -10.3053    1.7934    1.8111 H       1  LIG1        0.0843
     80 O         -11.1823    5.0864   -0.8884 O.3     1  LIG1       -0.4792
     81 C          -9.9263    4.8602   -1.5310 C.3     1  LIG1        0.0804
     82 H          -9.8765    5.6019   -2.3213 H       1  LIG1        0.0660
     83 H          -9.1154    5.0039   -0.8178 H       1  LIG1        0.0660
     84 H          -9.8885    3.8449   -1.9235 H       1  LIG1        0.0660
     85 C         -12.5293    1.8132    3.3205 C.1     1  LIG1       -0.0681
     86 C         -12.7977    1.0734    4.2287 C.1     1  LIG1       -0.1139
     87 H         -13.0344    0.4161    5.0332 H       1  LIG1        0.1232
@<TRIPOS>BOND
     1     6     1    1
     2     9     8    1
     3     1     5   ar
     4     1     2   ar
     5     8     7    3
     6     7     2    1
     7    32    31    1
     8    45    46    3
     9     5     4   ar
    10     2     3   ar
    11    82    81    1
    12    31    24    1
    13    84    81    1
    14    46    41    1
    15    64    63    1
    16    61    57    1
    17    63    62    3
    18    53    52    1
    19    81    80    1
    20    81    83    1
    21    18    17    1
    22    62    58    1
    23    57    58   ar
    24    57    56   ar
    25    54    52    1
    26     4     3   ar
    27     4    13    1
    28    58    59   ar
    29    42    40    1
    30    55    49    1
    31     3    10    1
    32    41    40   ar
    33    41    38   ar
    34    49    50   ar
    35    49    48   ar
    36    56    50    1
    37    56    60   ar
    38    50    51   ar
    39    48    52    1
    40    48    47   ar
    41    29    24   ar
    42    29    28   ar
    43    51    47   ar
    44    80    72    1
    45    47    38    1
    46    24    25   ar
    47    40    37   ar
    48    59    60   ar
    49    59    65    1
    50    38    36   ar
    51    17    13   ar
    52    17    16   ar
    53    70    66    1
    54    65    66   ar
    55    65    69   ar
    56    13    14   ar
    57    66    67   ar
    58    37    28    1
    59    37    35   ar
    60    69    68   ar
    61    36    35   ar
    62    36    39    1
    63    10    11    3
    64    28    27   ar
    65    72    77   ar
    66    72    73   ar
    67    67    68   ar
    68    67    71    1
    69    25    16    1
    70    25    26   ar
    71    35    43    1
    72    68    73    1
    73    16    15   ar
    74    77    76   ar
    75    73    74   ar
    76    14    15   ar
    77    14    19    1
    78    43    44    1
    79    11    12    1
    80    27    26   ar
    81    27    33    1
    82    26    30    1
    83    15    21    1
    84    76    79    1
    85    76    75   ar
    86    19    20    1
    87    74    75   ar
    88    74    78    1
    89    34    33    1
    90    75    85    1
    91    21    22    3
    92    85    86    3
    93    22    23    1
    94    86    87    1
