@<TRIPOS>MOLECULE
mol_data/opt/m06hf/geoms/mol2/12ee6eh13ih12lf.out
 51 54 0 0 0
SMALL
GASTEIGER

@<TRIPOS>ATOM
      1 C           0.7251    1.7748    1.5538 C.ar    1  LIG1        0.1092
      2 C           1.6214    1.5716    0.5538 C.ar    1  LIG1        0.0783
      3 C           1.7599    2.8530   -0.1064 C.ar    1  LIG1        0.0858
      4 C           0.9296    3.7098    0.5619 C.ar    1  LIG1        0.1540
      5 O           0.3142    3.0513    1.5619 O.2     1  LIG1       -0.4603
      6 H           0.3135    1.1203    2.3012 H       1  LIG1        0.1042
      7 C           2.2895    0.3525    0.2148 C.1     1  LIG1       -0.0653
      8 C           2.8568   -0.6646   -0.0760 C.1     1  LIG1       -0.1138
      9 H           3.3631   -1.5645   -0.3379 H       1  LIG1        0.1232
     10 C           2.5861    3.1319   -1.2399 C.1     1  LIG1       -0.0646
     11 C           3.2890    3.3503   -2.1895 C.1     1  LIG1       -0.1138
     12 H           3.9083    3.5278   -3.0382 H       1  LIG1        0.1232
     13 C          -0.6099    5.7088    0.6015 C.ar    1  LIG1        0.1247
     14 C           0.6586    5.1436    0.3857 C.ar    1  LIG1        0.0541
     15 C           1.6865    5.9781   -0.0402 C.ar    1  LIG1       -0.0255
     16 C           1.4543    7.3390   -0.2305 C.ar    1  LIG1        0.0531
     17 C           0.1714    7.8260    0.1069 C.ar    1  LIG1        0.1094
     18 N          -0.8172    7.0167    0.4709 N.ar    1  LIG1       -0.2344
     19 H           2.6656    5.5618   -0.2435 H       1  LIG1        0.0644
     20 C          -1.7671    4.9059    0.9397 C.1     1  LIG1       -0.0491
     21 C          -2.7427    4.2552    1.1971 C.1     1  LIG1       -0.1124
     22 H          -3.6084    3.6798    1.4305 H       1  LIG1        0.1232
     23 N           2.4384    8.1805   -0.7106 N.pl3   1  LIG1       -0.3563
     24 H           3.1652    7.7347   -1.2511 H       1  LIG1        0.1424
     25 H           2.0928    9.0442   -1.1114 H       1  LIG1        0.1424
     26 C          -0.1821    9.2527   -0.0217 C.ar    1  LIG1        0.0721
     27 C           0.5033   10.4339    0.2430 C.ar    1  LIG1       -0.0023
     28 C          -0.3957   11.4971   -0.0542 C.ar    1  LIG1        0.0570
     29 C          -1.5924   10.9274   -0.4637 C.ar    1  LIG1        0.1075
     30 N          -1.4373    9.5698   -0.4268 N.ar    1  LIG1       -0.3487
     31 H          -2.1575    8.8843   -0.6029 H       1  LIG1        0.1661
     32 C           1.8495   10.6478    0.8939 C.3     1  LIG1       -0.0359
     33 H           1.7466   11.4564    1.6201 H       1  LIG1        0.0279
     34 H           2.6214   10.9351    0.1733 H       1  LIG1        0.0279
     35 H           2.1837    9.7445    1.4007 H       1  LIG1        0.0279
     36 N          -0.0939   12.8548    0.1339 N.pl3   1  LIG1       -0.3560
     37 H           0.8002   13.1092   -0.2684 H       1  LIG1        0.1424
     38 H          -0.8321   13.4700   -0.1937 H       1  LIG1        0.1424
     39 C          -2.8650   11.5109   -0.8476 C.ar    1  LIG1        0.1979
     40 C          -3.3862   12.7664   -0.7702 C.ar    1  LIG1        0.2092
     41 C          -4.7333   12.6781   -1.2733 C.ar    1  LIG1        0.1979
     42 C          -4.9245   11.3848   -1.6240 C.ar    1  LIG1        0.1378
     43 O          -3.7894   10.6749   -1.3729 O.2     1  LIG1       -0.4538
     44 H          -5.7547   10.8464   -2.0442 H       1  LIG1        0.1069
     45 O          -2.7849   13.8924   -0.2940 O.3     1  LIG1       -0.4884
     46 C          -3.1511   14.1913    1.0589 C.3     1  LIG1        0.0791
     47 H          -2.6047   15.0913    1.3296 H       1  LIG1        0.0660
     48 H          -4.2261   14.3654    1.1159 H       1  LIG1        0.0660
     49 H          -2.8604   13.3620    1.7056 H       1  LIG1        0.0660
     50 O          -5.5603   13.7534   -1.3174 O.3     1  LIG1       -0.5012
     51 H          -6.4221   13.5041   -1.6675 H       1  LIG1        0.2924
@<TRIPOS>BOND
     1    12    11    1
     2    11    10    3
     3    44    42    1
     4    51    50    1
     5    42    43   ar
     6    42    41   ar
     7    43    39   ar
     8    50    41    1
     9    41    40   ar
    10    24    23    1
    11    10     3    1
    12    25    23    1
    13    39    40   ar
    14    39    29    1
    15    40    45    1
    16    23    16    1
    17    31    30    1
    18    29    30   ar
    19    29    28   ar
    20    30    26   ar
    21     9     8    1
    22    45    46    1
    23    37    36    1
    24    19    15    1
    25    16    15   ar
    26    16    17   ar
    27    38    36    1
    28     3     2   ar
    29     3     4   ar
    30     8     7    3
    31    28    36    1
    32    28    27   ar
    33    15    14   ar
    34    26    17    1
    35    26    27   ar
    36    17    18   ar
    37    34    32    1
    38     7     2    1
    39    27    32    1
    40    14     4    1
    41    14    13   ar
    42    18    13   ar
    43     2     1   ar
    44     4     5   ar
    45    13    20    1
    46    32    35    1
    47    32    33    1
    48    20    21    3
    49    46    48    1
    50    46    47    1
    51    46    49    1
    52    21    22    1
    53     1     5   ar
    54     1     6    1
