@<TRIPOS>MOLECULE
mol_data/opt/m06hf/geoms/mol2/12ee4hf-4fa13he-.out
 49 52 0 0 0
SMALL
GASTEIGER

@<TRIPOS>ATOM
      1 C           0.1992    1.6244   -0.0114 C.ar    1  LIG1        0.1092
      2 C           1.5442    1.5602   -0.1696 C.ar    1  LIG1        0.0783
      3 C           1.9985    2.9374   -0.1696 C.ar    1  LIG1        0.0858
      4 C           0.8839    3.7101    0.0058 C.ar    1  LIG1        0.1532
      5 O          -0.1993    2.9038    0.0917 O.2     1  LIG1       -0.4604
      6 H          -0.5607    0.8660    0.0465 H       1  LIG1        0.1042
      7 C           2.3486    0.3867   -0.3248 C.1     1  LIG1       -0.0653
      8 C           3.0270   -0.5950   -0.4572 C.1     1  LIG1       -0.1138
      9 H           3.6319   -1.4641   -0.5756 H       1  LIG1        0.1232
     10 C           3.3411    3.3811   -0.3786 C.1     1  LIG1       -0.0646
     11 C           4.4701    3.7593   -0.5462 C.1     1  LIG1       -0.1138
     12 H           5.4685    4.0894   -0.7191 H       1  LIG1        0.1232
     13 C           1.4042    6.0407    0.8242 C.ar    1  LIG1        0.0362
     14 C           1.0423    7.3956    0.8177 C.ar    1  LIG1       -0.0290
     15 C           0.6285    5.1590    0.0579 C.ar    1  LIG1        0.0426
     16 C          -0.0416    7.8840    0.1005 C.ar    1  LIG1        0.0288
     17 H           1.6317    8.0956    1.3959 H       1  LIG1        0.0643
     18 C          -0.4729    5.6398   -0.6610 C.ar    1  LIG1       -0.0071
     19 C          -0.8115    6.9796   -0.6506 C.ar    1  LIG1        0.1254
     20 H          -1.0632    4.9358   -1.2371 H       1  LIG1        0.0662
     21 N           2.4404    5.6091    1.6484 N.pl3   1  LIG1       -0.3574
     22 H           2.9858    4.8295    1.3080 H       1  LIG1        0.1423
     23 H           3.0287    6.3575    1.9860 H       1  LIG1        0.1423
     24 O          -1.8798    7.4603   -1.3601 O.3     1  LIG1       -0.5061
     25 H          -2.2228    6.7729   -1.9401 H       1  LIG1        0.2922
     26 C           0.5920   10.3246   -0.0133 C.ar    1  LIG1        0.1253
     27 C           0.2607   11.6751    0.0334 C.ar    1  LIG1       -0.0104
     28 C          -0.3898    9.3341    0.1389 C.ar    1  LIG1        0.0271
     29 C          -1.0639   12.0708    0.2295 C.ar    1  LIG1        0.0036
     30 H           1.0297   12.4347   -0.0694 H       1  LIG1        0.0661
     31 C          -1.7087    9.7498    0.3323 C.ar    1  LIG1       -0.0498
     32 C          -2.0532   11.0945    0.3750 C.ar    1  LIG1       -0.0518
     33 H          -2.4764    8.9942    0.4294 H       1  LIG1        0.0625
     34 O           1.8831    9.9306   -0.2011 O.3     1  LIG1       -0.5061
     35 H           2.4427   10.6987   -0.3579 H       1  LIG1        0.2922
     36 H          -3.0919   11.3791    0.4849 H       1  LIG1        0.0624
     37 C          -1.3809   13.5050    0.2857 C.ar    1  LIG1        0.0687
     38 C          -0.7810   14.5741   -0.3435 C.ar    1  LIG1        0.0658
     39 C          -1.4849   15.7526    0.0584 C.ar    1  LIG1        0.0632
     40 C          -2.4852   15.3539    0.9237 C.ar    1  LIG1        0.0195
     41 N          -2.4212   14.0093    1.0379 N.ar    1  LIG1       -0.3580
     42 H          -2.9864   13.4502    1.6563 H       1  LIG1        0.1654
     43 H          -3.2158   15.9433    1.4487 H       1  LIG1        0.0820
     44 N           0.3266   14.5362   -1.2117 N.pl3   1  LIG1       -0.3554
     45 H           0.2079   13.8467   -1.9475 H       1  LIG1        0.1424
     46 H           0.4913   15.4513   -1.6179 H       1  LIG1        0.1424
     47 C          -1.1879   17.0780   -0.3919 C.1     1  LIG1       -0.0663
     48 C          -0.9052   18.1728   -0.8030 C.1     1  LIG1       -0.1138
     49 H          -0.6649   19.1481   -1.1563 H       1  LIG1        0.1232
@<TRIPOS>BOND
     1    45    44    1
     2    25    24    1
     3    46    44    1
     4    24    19    1
     5    20    18    1
     6    44    38    1
     7    49    48    1
     8    48    47    3
     9    12    11    1
    10    18    19   ar
    11    18    15   ar
    12    19    16   ar
    13     9     8    1
    14    11    10    3
    15     8     7    3
    16    47    39    1
    17    10     3    1
    18    35    34    1
    19    38    39   ar
    20    38    37   ar
    21     7     2    1
    22    34    26    1
    23     2     3   ar
    24     2     1   ar
    25     3     4   ar
    26    30    27    1
    27    26    27   ar
    28    26    28   ar
    29     1     6    1
    30     1     5   ar
    31     4    15    1
    32     4     5   ar
    33    27    29   ar
    34    15    13   ar
    35    39    40   ar
    36    16    28    1
    37    16    14   ar
    38    28    31   ar
    39    29    37    1
    40    29    32   ar
    41    37    41   ar
    42    31    32   ar
    43    31    33    1
    44    32    36    1
    45    14    13   ar
    46    14    17    1
    47    13    21    1
    48    40    41   ar
    49    40    43    1
    50    41    42    1
    51    22    21    1
    52    21    23    1
