@<TRIPOS>MOLECULE
mol_data/opt/m06hf/geoms/mol2/12ee12ee-.out
 24 25 0 0 0
SMALL
GASTEIGER

@<TRIPOS>ATOM
      1 C           0.1919    1.8240    0.0001 C.ar    1  LIG1        0.1093
      2 C           1.5496    1.7999    0.0000 C.ar    1  LIG1        0.0785
      3 C           1.9686    3.1875    0.0000 C.ar    1  LIG1        0.0888
      4 C           0.8101    3.9124   -0.0000 C.ar    1  LIG1        0.1874
      5 O          -0.2550    3.0907   -0.0000 O.2     1  LIG1       -0.4573
      6 H          -0.5469    1.0424    0.0001 H       1  LIG1        0.1042
      7 C           2.3996    0.6489    0.0000 C.1     1  LIG1       -0.0653
      8 C           3.1201   -0.3112    0.0001 C.1     1  LIG1       -0.1138
      9 H           3.7653   -1.1592    0.0000 H       1  LIG1        0.1232
     10 C           3.3146    3.6650    0.0001 C.1     1  LIG1       -0.0645
     11 C           4.4536    4.0443    0.0001 C.1     1  LIG1       -0.1138
     12 H           5.4647    4.3804    0.0000 H       1  LIG1        0.1232
     13 C           0.5481    5.3376   -0.0001 C.ar    1  LIG1        0.1874
     14 C          -0.6104    6.0626   -0.0001 C.ar    1  LIG1        0.0888
     15 C          -0.1914    7.4501   -0.0002 C.ar    1  LIG1        0.0785
     16 C           1.1664    7.4261   -0.0002 C.ar    1  LIG1        0.1093
     17 O           1.6132    6.1593   -0.0001 O.2     1  LIG1       -0.4573
     18 H           1.9051    8.2076   -0.0003 H       1  LIG1        0.1042
     19 C          -1.9564    5.5850   -0.0000 C.1     1  LIG1       -0.0645
     20 C          -3.0954    5.2057    0.0000 C.1     1  LIG1       -0.1138
     21 H          -4.1064    4.8695    0.0001 H       1  LIG1        0.1232
     22 C          -1.0414    8.6011   -0.0002 C.1     1  LIG1       -0.0653
     23 C          -1.7618    9.5612   -0.0002 C.1     1  LIG1       -0.1138
     24 H          -2.4071   10.4092   -0.0002 H       1  LIG1        0.1232
@<TRIPOS>BOND
     1    18    16    1
     2    23    24    1
     3    23    22    3
     4    16    15   ar
     5    16    17   ar
     6    22    15    1
     7    15    14   ar
     8    17    13   ar
     9    14    13   ar
    10    14    19    1
    11    13     4    1
    12    19    20    3
    13     4     5   ar
    14     4     3   ar
    15     5     1   ar
    16    20    21    1
    17    12    11    1
    18     2     3   ar
    19     2     7    1
    20     2     1   ar
    21     3    10    1
    22     9     8    1
    23     7     8    3
    24     1     6    1
    25    10    11    3
