@<TRIPOS>MOLECULE
mol_data/opt/m06hf/geoms/mol2/12ee12ee12ee.out
 35 37 0 0 0
SMALL
GASTEIGER

@<TRIPOS>ATOM
      1 C           0.5216    1.9238   -1.2636 C.ar    1  LIG1        0.1093
      2 C           1.6905    1.8301   -0.5778 C.ar    1  LIG1        0.0785
      3 C           1.9166    3.1436   -0.0089 C.ar    1  LIG1        0.0888
      4 C           0.8627    3.9048   -0.4245 C.ar    1  LIG1        0.1875
      5 O           0.0212    3.1656   -1.1762 O.2     1  LIG1       -0.4573
      6 H          -0.0421    1.2058   -1.8320 H       1  LIG1        0.1042
      7 C           2.5163    0.6719   -0.4222 C.1     1  LIG1       -0.0653
      8 C           3.2111   -0.2971   -0.2844 C.1     1  LIG1       -0.1138
      9 H           3.8278   -1.1564   -0.1565 H       1  LIG1        0.1232
     10 C           2.9826    3.5266    0.8599 C.1     1  LIG1       -0.0645
     11 C           3.8702    3.8406    1.6042 C.1     1  LIG1       -0.1138
     12 H           4.6532    4.1259    2.2677 H       1  LIG1        0.1232
     13 C           0.5135    5.2979   -0.1998 C.ar    1  LIG1        0.1885
     14 C           1.2669    6.4349   -0.1425 C.ar    1  LIG1        0.0896
     15 C           0.3354    7.5042    0.1437 C.ar    1  LIG1        0.0896
     16 C          -0.8943    6.9142    0.1997 C.ar    1  LIG1        0.1885
     17 O          -0.7868    5.5866   -0.0005 O.2     1  LIG1       -0.4460
     18 C           2.6708    6.5658   -0.3645 C.1     1  LIG1       -0.0645
     19 C           3.8478    6.6831   -0.5671 C.1     1  LIG1       -0.1138
     20 H           4.8925    6.7802   -0.7512 H       1  LIG1        0.1232
     21 C           0.6578    8.8767    0.3669 C.1     1  LIG1       -0.0645
     22 C           0.9354   10.0263    0.5704 C.1     1  LIG1       -0.1138
     23 H           1.1748   11.0477    0.7553 H       1  LIG1        0.1232
     24 C          -2.2264    7.4512    0.4236 C.ar    1  LIG1        0.1875
     25 C          -2.8353    8.6000    0.0082 C.ar    1  LIG1        0.0888
     26 C          -4.1677    8.5562    0.5762 C.ar    1  LIG1        0.0785
     27 C          -4.2360    7.3852    1.2613 C.ar    1  LIG1        0.1093
     28 O          -3.0748    6.7190    1.1744 O.2     1  LIG1       -0.4573
     29 H          -5.0251    6.9252    1.8289 H       1  LIG1        0.1042
     30 C          -2.3087    9.6037   -0.8596 C.1     1  LIG1       -0.0645
     31 C          -1.8753   10.4402   -1.6032 C.1     1  LIG1       -0.1138
     32 H          -1.4848   11.1769   -2.2661 H       1  LIG1        0.1232
     33 C          -5.2014    9.5334    0.4205 C.1     1  LIG1       -0.0653
     34 C          -6.0656   10.3549    0.2825 C.1     1  LIG1       -0.1138
     35 H          -6.8320   11.0838    0.1544 H       1  LIG1        0.1232
@<TRIPOS>BOND
     1    32    31    1
     2     6     1    1
     3    31    30    3
     4     1     5   ar
     5     1     2   ar
     6     5     4   ar
     7    30    25    1
     8    20    19    1
     9     2     7    1
    10     2     3   ar
    11    19    18    3
    12     4    13    1
    13     4     3   ar
    14     7     8    3
    15    18    14    1
    16     8     9    1
    17    13    14   ar
    18    13    17   ar
    19    14    15   ar
    20     3    10    1
    21    17    16   ar
    22    25    24   ar
    23    25    26   ar
    24    15    16   ar
    25    15    21    1
    26    35    34    1
    27    16    24    1
    28    34    33    3
    29    21    22    3
    30    33    26    1
    31    24    28   ar
    32    22    23    1
    33    26    27   ar
    34    10    11    3
    35    28    27   ar
    36    27    29    1
    37    11    12    1
