@<TRIPOS>MOLECULE
mol_data/opt/m06hf/geoms/mol2/12ee12ee12ee-12ee.out
 46 49 0 0 0
SMALL
GASTEIGER

@<TRIPOS>ATOM
      1 C           0.5350    1.6614   -0.4203 C.ar    1  LIG1        0.1093
      2 C           1.7327    1.7883    0.2079 C.ar    1  LIG1        0.0785
      3 C           1.9490    3.2135    0.3539 C.ar    1  LIG1        0.0888
      4 C           0.8600    3.8049   -0.2182 C.ar    1  LIG1        0.1875
      5 O           0.0072    2.8675   -0.6797 O.2     1  LIG1       -0.4573
      6 H          -0.0304    0.8002   -0.7276 H       1  LIG1        0.1042
      7 C           2.5964    0.7389    0.6549 C.1     1  LIG1       -0.0653
      8 C           3.3268   -0.1352    1.0332 C.1     1  LIG1       -0.1138
      9 H           3.9785   -0.9069    1.3718 H       1  LIG1        0.1232
     10 C           3.0390    3.8501    1.0210 C.1     1  LIG1       -0.0645
     11 C           3.9466    4.3824    1.5988 C.1     1  LIG1       -0.1138
     12 H           4.7469    4.8628    2.1121 H       1  LIG1        0.1232
     13 C           0.4903    5.1985   -0.3985 C.ar    1  LIG1        0.1885
     14 C           1.2216    6.3095   -0.7106 C.ar    1  LIG1        0.0896
     15 C           0.2798    7.4061   -0.7260 C.ar    1  LIG1        0.0896
     16 C          -0.9327    6.8473   -0.4290 C.ar    1  LIG1        0.1885
     17 O          -0.8070    5.5242   -0.2334 O.2     1  LIG1       -0.4460
     18 C           2.6110    6.3804   -1.0326 C.1     1  LIG1       -0.0645
     19 C           3.7747    6.4476   -1.3197 C.1     1  LIG1       -0.1138
     20 H           4.8071    6.5012   -1.5779 H       1  LIG1        0.1232
     21 C           0.5577    8.7683   -1.0471 C.1     1  LIG1       -0.0645
     22 C           0.7844    9.9115   -1.3348 C.1     1  LIG1       -0.1138
     23 H           0.9618   10.9293   -1.5956 H       1  LIG1        0.1232
     24 C          -2.2553    7.4206   -0.3042 C.ar    1  LIG1        0.1885
     25 C          -3.5037    6.8624   -0.2746 C.ar    1  LIG1        0.0896
     26 C          -4.4200    7.9720   -0.1408 C.ar    1  LIG1        0.0896
     27 C          -3.6359    9.0926   -0.1020 C.ar    1  LIG1        0.1885
     28 O          -2.3381    8.7578   -0.2013 O.2     1  LIG1       -0.4460
     29 C          -3.8497    5.4801   -0.3632 C.1     1  LIG1       -0.0645
     30 C          -4.1514    4.3210   -0.4369 C.1     1  LIG1       -0.1138
     31 H          -4.4154    3.2910   -0.5017 H       1  LIG1        0.1232
     32 C          -5.8426    7.8855   -0.0504 C.1     1  LIG1       -0.0645
     33 C          -7.0362    7.7895    0.0297 C.1     1  LIG1       -0.1138
     34 H          -8.0955    7.7018    0.1017 H       1  LIG1        0.1232
     35 C          -3.9427   10.5006    0.0390 C.ar    1  LIG1        0.1875
     36 C          -3.1700   11.5714    0.3916 C.ar    1  LIG1        0.0888
     37 C          -4.0611   12.7128    0.3515 C.ar    1  LIG1        0.0785
     38 C          -5.2741   12.2210   -0.0108 C.ar    1  LIG1        0.1093
     39 O          -5.2076   10.8933   -0.2000 O.2     1  LIG1       -0.4573
     40 H          -6.2280   12.6920   -0.1653 H       1  LIG1        0.1042
     41 C          -1.7928   11.5685    0.7686 C.1     1  LIG1       -0.0645
     42 C          -0.6398   11.5595    1.1054 C.1     1  LIG1       -0.1138
     43 H           0.3809   11.5292    1.4112 H       1  LIG1        0.1232
     44 C          -3.7279   14.0735    0.6434 C.1     1  LIG1       -0.0653
     45 C          -3.4415   15.2128    0.8897 C.1     1  LIG1       -0.1138
     46 H          -3.1828   16.2224    1.1116 H       1  LIG1        0.1232
@<TRIPOS>BOND
     1    23    22    1
     2    20    19    1
     3    22    21    3
     4    19    18    3
     5    21    15    1
     6    18    14    1
     7     6     1    1
     8    15    14   ar
     9    15    16   ar
    10    14    13   ar
    11     5     1   ar
    12     5     4   ar
    13    31    30    1
    14    30    29    3
    15    16    24    1
    16    16    17   ar
    17     1     2   ar
    18    13    17   ar
    19    13     4    1
    20    29    25    1
    21    24    25   ar
    22    24    28   ar
    23    25    26   ar
    24     4     3   ar
    25    28    27   ar
    26    39    38   ar
    27    39    35   ar
    28    40    38    1
    29    26    27   ar
    30    26    32    1
    31    27    35    1
    32    32    33    3
    33    38    37   ar
    34    33    34    1
    35    35    36   ar
    36     2     3   ar
    37     2     7    1
    38    37    36   ar
    39    37    44    1
    40     3    10    1
    41    36    41    1
    42    44    45    3
    43     7     8    3
    44    41    42    3
    45    45    46    1
    46    10    11    3
    47     8     9    1
    48    42    43    1
    49    11    12    1
