@<TRIPOS>MOLECULE
mol_data/opt/m06hf/geoms/mol2/12ee12ee12ee12ee-.out
 46 49 0 0 0
SMALL
GASTEIGER

@<TRIPOS>ATOM
      1 C           1.1382    2.2880   -2.2216 C.ar    1  LIG1        0.1093
      2 C           2.0765    2.0205   -1.2755 C.ar    1  LIG1        0.0785
      3 C           2.0662    3.1605   -0.3807 C.ar    1  LIG1        0.0888
      4 C           1.1278    4.0114   -0.8890 C.ar    1  LIG1        0.1875
      5 O           0.5668    3.4802   -1.9943 O.2     1  LIG1       -0.4573
      6 H           0.7945    1.7345   -3.0773 H       1  LIG1        0.1042
      7 C           2.8919    0.8498   -1.1680 C.1     1  LIG1       -0.0653
      8 C           3.5775   -0.1304   -1.0714 C.1     1  LIG1       -0.1138
      9 H           4.1894   -0.9979   -0.9819 H       1  LIG1        0.1232
     10 C           2.8330    3.3172    0.8132 C.1     1  LIG1       -0.0645
     11 C           3.4680    3.4385    1.8244 C.1     1  LIG1       -0.1138
     12 H           4.0257    3.5531    2.7245 H       1  LIG1        0.1232
     13 C           0.6565    5.3205   -0.4664 C.ar    1  LIG1        0.1885
     14 C           1.3027    6.4089    0.0456 C.ar    1  LIG1        0.0896
     15 C           0.2732    7.3994    0.2750 C.ar    1  LIG1        0.0896
     16 C          -0.8895    6.8236   -0.1497 C.ar    1  LIG1        0.1885
     17 O          -0.6606    5.5716   -0.5890 O.2     1  LIG1       -0.4460
     18 C           2.7032    6.5714    0.2680 C.1     1  LIG1       -0.0645
     19 C           3.8813    6.7198    0.4422 C.1     1  LIG1       -0.1138
     20 H           4.9285    6.8439    0.5922 H       1  LIG1        0.1232
     21 C           0.4441    8.6878    0.8651 C.1     1  LIG1       -0.0645
     22 C           0.5848    9.7649    1.3753 C.1     1  LIG1       -0.1138
     23 H           0.6998   10.7222    1.8282 H       1  LIG1        0.1232
     24 C          -2.2574    7.3103   -0.2010 C.ar    1  LIG1        0.1885
     25 C          -2.7912    8.5254   -0.5232 C.ar    1  LIG1        0.0896
     26 C          -4.2222    8.3749   -0.3776 C.ar    1  LIG1        0.0896
     27 C          -4.4138    7.0753    0.0042 C.ar    1  LIG1        0.1885
     28 O          -3.2369    6.4387    0.1103 O.2     1  LIG1       -0.4460
     29 C          -2.0996    9.6866   -0.9836 C.1     1  LIG1       -0.0645
     30 C          -1.5214   10.6559   -1.3920 C.1     1  LIG1       -0.1138
     31 H          -1.0007   11.5096   -1.7595 H       1  LIG1        0.1232
     32 C          -5.2043    9.3839   -0.6148 C.1     1  LIG1       -0.0645
     33 C          -6.0127   10.2463   -0.8227 C.1     1  LIG1       -0.1138
     34 H          -6.7319   11.0097   -1.0084 H       1  LIG1        0.1232
     35 C          -5.6076    6.3096    0.2964 C.ar    1  LIG1        0.1875
     36 C          -5.7940    5.0129    0.6853 C.ar    1  LIG1        0.0888
     37 C          -7.2291    4.8570    0.8108 C.ar    1  LIG1        0.0785
     38 C          -7.7618    6.0649    0.4890 C.ar    1  LIG1        0.1093
     39 O          -6.7908    6.9395    0.1803 O.2     1  LIG1       -0.4573
     40 H          -8.7755    6.4201    0.4403 H       1  LIG1        0.1042
     41 C          -4.8050    4.0112    0.9235 C.1     1  LIG1       -0.0645
     42 C          -3.9823    3.1620    1.1295 C.1     1  LIG1       -0.1138
     43 H          -3.2455    2.4144    1.3112 H       1  LIG1        0.1232
     44 C          -7.9319    3.6704    1.1935 C.1     1  LIG1       -0.0653
     45 C          -8.5140    2.6703    1.5137 C.1     1  LIG1       -0.1138
     46 H          -9.0270    1.7811    1.7996 H       1  LIG1        0.1232
@<TRIPOS>BOND
     1     6     1    1
     2     1     5   ar
     3     1     2   ar
     4     5     4   ar
     5    31    30    1
     6    30    29    3
     7     2     7    1
     8     2     3   ar
     9     7     8    3
    10     8     9    1
    11    34    33    1
    12    29    25    1
    13     4    13    1
    14     4     3   ar
    15    33    32    3
    16    32    26    1
    17    17    13   ar
    18    17    16   ar
    19    25    26   ar
    20    25    24   ar
    21    13    14   ar
    22     3    10    1
    23    26    27   ar
    24    24    16    1
    25    24    28   ar
    26    16    15   ar
    27    27    28   ar
    28    27    35    1
    29    14    18    1
    30    14    15   ar
    31    39    35   ar
    32    39    38   ar
    33    18    19    3
    34    15    21    1
    35    35    36   ar
    36    40    38    1
    37    19    20    1
    38    38    37   ar
    39    36    37   ar
    40    36    41    1
    41    37    44    1
    42    10    11    3
    43    21    22    3
    44    41    42    3
    45    42    43    1
    46    44    45    3
    47    22    23    1
    48    45    46    1
    49    11    12    1
