@<TRIPOS>MOLECULE
mol_data/opt/m06hf/geoms/mol2/12ee12ee-12ee.out
 35 37 0 0 0
SMALL
GASTEIGER

@<TRIPOS>ATOM
      1 C           0.2401    1.7979    0.4848 C.ar    1  LIG1        0.1093
      2 C           1.5400    1.7551    0.0919 C.ar    1  LIG1        0.0785
      3 C           1.9231    3.1312   -0.1493 C.ar    1  LIG1        0.0888
      4 C           0.8071    3.8687    0.1304 C.ar    1  LIG1        0.1875
      5 O          -0.2030    3.0651    0.5113 O.2     1  LIG1       -0.4573
      6 H          -0.4568    1.0288    0.7649 H       1  LIG1        0.1042
      7 C           2.3610    0.5939   -0.0652 C.1     1  LIG1       -0.0653
      8 C           3.0530   -0.3772   -0.2008 C.1     1  LIG1       -0.1138
      9 H           3.6707   -1.2363   -0.3244 H       1  LIG1        0.1232
     10 C           3.1839    3.6025   -0.6242 C.1     1  LIG1       -0.0645
     11 C           4.2363    4.0002   -1.0433 C.1     1  LIG1       -0.1138
     12 H           5.1601    4.3720   -1.4223 H       1  LIG1        0.1232
     13 C           0.5467    5.2918    0.0707 C.ar    1  LIG1        0.1885
     14 C          -0.6108    6.0191    0.0464 C.ar    1  LIG1        0.0896
     15 C          -0.1980    7.4013   -0.0461 C.ar    1  LIG1        0.0896
     16 C           1.1688    7.3747   -0.0708 C.ar    1  LIG1        0.1885
     17 O           1.6125    6.1078   -0.0002 O.2     1  LIG1       -0.4460
     18 C          -1.9567    5.5417    0.0868 C.1     1  LIG1       -0.0645
     19 C          -3.0959    5.1635    0.1164 C.1     1  LIG1       -0.1138
     20 H          -4.1077    4.8299    0.1439 H       1  LIG1        0.1232
     21 C          -1.0616    8.5387   -0.0860 C.1     1  LIG1       -0.0645
     22 C          -1.8067    9.4797   -0.1154 C.1     1  LIG1       -0.1138
     23 H          -2.4699   10.3136   -0.1425 H       1  LIG1        0.1232
     24 C           2.1670    8.4219   -0.1306 C.ar    1  LIG1        0.1875
     25 C           3.5046    8.4265    0.1490 C.ar    1  LIG1        0.0888
     26 C           3.9390    9.7874   -0.0924 C.ar    1  LIG1        0.0785
     27 C           2.8286   10.4644   -0.4853 C.ar    1  LIG1        0.1093
     28 O           1.7630    9.6478   -0.5116 O.2     1  LIG1       -0.4573
     29 H           2.6675   11.4897   -0.7655 H       1  LIG1        0.1042
     30 C           4.3004    7.3410    0.6239 C.1     1  LIG1       -0.0645
     31 C           4.9624    6.4312    1.0428 C.1     1  LIG1       -0.1138
     32 H           5.5311    5.6138    1.4219 H       1  LIG1        0.1232
     33 C           5.2623   10.3081    0.0647 C.1     1  LIG1       -0.0653
     34 C           6.3736   10.7406    0.2001 C.1     1  LIG1       -0.1138
     35 H           7.3612   11.1202    0.3237 H       1  LIG1        0.1232
@<TRIPOS>BOND
     1    12    11    1
     2    11    10    3
     3    29    27    1
     4    10     3    1
     5    28    27   ar
     6    28    24   ar
     7    27    26   ar
     8     9     8    1
     9     8     7    3
    10     3     2   ar
    11     3     4   ar
    12    23    22    1
    13    24    16    1
    14    24    25   ar
    15    22    21    3
    16    26    33    1
    17    26    25   ar
    18    21    15    1
    19    16    15   ar
    20    16    17   ar
    21     7     2    1
    22    15    14   ar
    23    17    13   ar
    24    14    13   ar
    25    14    18    1
    26    33    34    3
    27    13     4    1
    28    18    19    3
    29     2     1   ar
    30    19    20    1
    31     4     5   ar
    32    25    30    1
    33    34    35    1
    34     1     5   ar
    35     1     6    1
    36    30    31    3
    37    31    32    1
