@<TRIPOS>MOLECULE
mol_data/opt/m06hf/geoms/mol2/12ee4ih4ef-6fl-.out
 55 58 0 0 0
SMALL
GASTEIGER

@<TRIPOS>ATOM
      1 C           0.3791    1.6351    0.6834 C.ar    1  LIG1        0.1092
      2 C           1.6355    1.5658    0.1776 C.ar    1  LIG1        0.0783
      3 C           2.0140    2.9362   -0.1123 C.ar    1  LIG1        0.0857
      4 C           0.9506    3.7089    0.2601 C.ar    1  LIG1        0.1516
      5 O          -0.0363    2.9120    0.7306 O.2     1  LIG1       -0.4604
      6 H          -0.3021    0.8821    1.0378 H       1  LIG1        0.1042
      7 C           2.4222    0.3900   -0.0381 C.1     1  LIG1       -0.0653
      8 C           3.0866   -0.5933   -0.2197 C.1     1  LIG1       -0.1138
      9 H           3.6790   -1.4634   -0.3832 H       1  LIG1        0.1232
     10 C           3.2303    3.3496   -0.7400 C.1     1  LIG1       -0.0646
     11 C           4.2547    3.6621   -1.2839 C.1     1  LIG1       -0.1138
     12 H           5.1614    3.9324   -1.7731 H       1  LIG1        0.1232
     13 C           1.5615    6.1192    0.6638 C.ar    1  LIG1       -0.0391
     14 C           1.1748    7.4532    0.5459 C.ar    1  LIG1       -0.0486
     15 C           0.6607    5.1555    0.1911 C.ar    1  LIG1        0.0232
     16 C          -0.0455    7.8420   -0.0000 C.ar    1  LIG1        0.0043
     17 H           1.8416    8.2267    0.9098 H       1  LIG1        0.0627
     18 C          -0.5712    5.5232   -0.3509 C.ar    1  LIG1       -0.0295
     19 C          -0.9413    6.8620   -0.4636 C.ar    1  LIG1        0.0331
     20 H          -1.2452    4.7502   -0.7005 H       1  LIG1        0.0643
     21 C           2.8872    5.7770    1.3176 C.3     1  LIG1       -0.0390
     22 H           3.1531    6.5591    2.0286 H       1  LIG1        0.0278
     23 H           3.6756    5.6942    0.5692 H       1  LIG1        0.0278
     24 H           2.8251    4.8253    1.8457 H       1  LIG1        0.0278
     25 N          -2.1884    7.2120   -0.9935 N.pl3   1  LIG1       -0.3575
     26 H          -2.2037    8.1144   -1.4530 H       1  LIG1        0.1423
     27 H          -2.6046    6.4912   -1.5679 H       1  LIG1        0.1423
     28 C           0.4191   10.2452   -0.6647 C.ar    1  LIG1        0.0332
     29 C           0.0360   11.5896   -0.6703 C.ar    1  LIG1       -0.0344
     30 C          -0.4101    9.2885   -0.0573 C.ar    1  LIG1        0.0027
     31 C          -1.1515   12.0266   -0.0888 C.ar    1  LIG1        0.0299
     32 H           0.6736   12.3098   -1.1664 H       1  LIG1        0.0637
     33 C          -1.6077    9.7152    0.5178 C.ar    1  LIG1       -0.0106
     34 C          -1.9679   11.0564    0.5048 C.ar    1  LIG1        0.1254
     35 H          -2.2592    8.9801    0.9791 H       1  LIG1        0.0661
     36 C           1.6528    9.8751   -1.3188 C.1     1  LIG1       -0.0690
     37 C           2.6831    9.6016   -1.8740 C.1     1  LIG1       -0.1139
     38 H           3.5936    9.3504   -2.3669 H       1  LIG1        0.1232
     39 O          -3.1377   11.4803    1.0767 O.3     1  LIG1       -0.5061
     40 H          -3.5887   10.7574    1.5276 H       1  LIG1        0.2922
     41 C          -2.7151   13.9849   -0.5460 C.ar    1  LIG1        0.2205
     42 C          -1.4830   13.4810   -0.0999 C.ar    1  LIG1        0.0505
     43 C          -0.4930   14.3979    0.2674 C.ar    1  LIG1       -0.0055
     44 C          -0.7462   15.7578    0.1514 C.ar    1  LIG1        0.1389
     45 C          -1.9967   16.1460   -0.3366 C.ar    1  LIG1        0.0730
     46 N          -2.9457   15.2853   -0.6629 N.ar    1  LIG1       -0.2173
     47 H           0.4519   14.0244    0.6400 H       1  LIG1        0.0662
     48 H          -2.2083   17.2029   -0.4489 H       1  LIG1        0.0868
     49 O          -3.7252   13.1729   -0.9323 O.3     1  LIG1       -0.4920
     50 H          -3.8107   12.4503   -0.2915 H       1  LIG1        0.2937
     51 O           0.1197   16.7531    0.4732 O.3     1  LIG1       -0.4936
     52 C           1.3997   16.3759    0.9397 C.3     1  LIG1        0.0789
     53 H           1.9363   17.3025    1.1241 H       1  LIG1        0.0660
     54 H           1.3208   15.8050    1.8686 H       1  LIG1        0.0660
     55 H           1.9282   15.7870    0.1853 H       1  LIG1        0.0660
@<TRIPOS>BOND
     1    38    37    1
     2    37    36    3
     3    12    11    1
     4    27    25    1
     5    26    25    1
     6    36    28    1
     7    11    10    3
     8    32    29    1
     9    25    19    1
    10    49    41    1
    11    49    50    1
    12    10     3    1
    13    20    18    1
    14    29    28   ar
    15    29    31   ar
    16    28    30   ar
    17    46    41   ar
    18    46    45   ar
    19    41    42   ar
    20    19    18   ar
    21    19    16   ar
    22    48    45    1
    23     9     8    1
    24    18    15   ar
    25    45    44   ar
    26     8     7    3
    27     3     2   ar
    28     3     4   ar
    29    42    31    1
    30    42    43   ar
    31    31    34   ar
    32    30    16    1
    33    30    33   ar
    34     7     2    1
    35    16    14   ar
    36    44    43   ar
    37    44    51    1
    38     2     1   ar
    39    55    52    1
    40    15     4    1
    41    15    13   ar
    42     4     5   ar
    43    43    47    1
    44    51    52    1
    45    34    33   ar
    46    34    39    1
    47    33    35    1
    48    14    13   ar
    49    14    17    1
    50    23    21    1
    51    13    21    1
    52     1     5   ar
    53     1     6    1
    54    52    53    1
    55    52    54    1
    56    39    40    1
    57    21    24    1
    58    21    22    1
