@<TRIPOS>MOLECULE
mol_data/opt/m06hf/geoms/mol2/12ee12ee12ee-12ee-.out
 46 49 0 0 0
SMALL
GASTEIGER

@<TRIPOS>ATOM
      1 C           0.4246    1.7456    0.9573 C.ar    1  LIG1        0.1093
      2 C           1.6261    1.7188    0.3234 C.ar    1  LIG1        0.0785
      3 C           1.8928    3.0882   -0.0677 C.ar    1  LIG1        0.0888
      4 C           0.8254    3.8082    0.3857 C.ar    1  LIG1        0.1875
      5 O          -0.0604    2.9957    0.9973 O.2     1  LIG1       -0.4573
      6 H          -0.1722    0.9718    1.4058 H       1  LIG1        0.1042
      7 C           2.4486    0.5753    0.0718 C.1     1  LIG1       -0.0653
      8 C           3.1402   -0.3819   -0.1429 C.1     1  LIG1       -0.1138
      9 H           3.7547   -1.2302   -0.3376 H       1  LIG1        0.1232
     10 C           3.0055    3.5598   -0.8284 C.1     1  LIG1       -0.0645
     11 C           3.9326    3.9480   -1.4849 C.1     1  LIG1       -0.1138
     12 H           4.7504    4.2992   -2.0707 H       1  LIG1        0.1232
     13 C           0.5032    5.2239    0.3251 C.ar    1  LIG1        0.1885
     14 C           1.2673    6.3476    0.4585 C.ar    1  LIG1        0.0896
     15 C           0.3601    7.4607    0.2886 C.ar    1  LIG1        0.0896
     16 C          -0.8700    6.8980    0.0837 C.ar    1  LIG1        0.1885
     17 O          -0.7835    5.5576    0.1051 O.2     1  LIG1       -0.4460
     18 C           2.6587    6.4244    0.7680 C.1     1  LIG1       -0.0645
     19 C           3.8251    6.4919    1.0428 C.1     1  LIG1       -0.1138
     20 H           4.8603    6.5439    1.2896 H       1  LIG1        0.1232
     21 C           0.7046    8.8456    0.3458 C.1     1  LIG1       -0.0645
     22 C           1.0156   10.0040    0.3973 C.1     1  LIG1       -0.1138
     23 H           1.2899   11.0327    0.4439 H       1  LIG1        0.1232
     24 C          -2.1791    7.4732   -0.1389 C.ar    1  LIG1        0.1885
     25 C          -3.3945    6.9095   -0.4151 C.ar    1  LIG1        0.0896
     26 C          -4.3122    8.0195   -0.5424 C.ar    1  LIG1        0.0896
     27 C          -3.5682    9.1425   -0.3148 C.ar    1  LIG1        0.1885
     28 O          -2.2840    8.8110   -0.0764 O.2     1  LIG1       -0.4460
     29 C          -3.7123    5.5274   -0.5807 C.1     1  LIG1       -0.0645
     30 C          -3.9971    4.3711   -0.7283 C.1     1  LIG1       -0.1138
     31 H          -4.2475    3.3442   -0.8612 H       1  LIG1        0.1232
     32 C          -5.6903    7.9439   -0.9080 C.1     1  LIG1       -0.0645
     33 C          -6.8438    7.8790   -1.2343 C.1     1  LIG1       -0.1138
     34 H          -7.8671    7.8304   -1.5274 H       1  LIG1        0.1232
     35 C          -3.9072   10.5554   -0.2930 C.ar    1  LIG1        0.1875
     36 C          -5.0015   11.2323    0.1627 C.ar    1  LIG1        0.0888
     37 C          -4.7358   12.6278   -0.1222 C.ar    1  LIG1        0.0785
     38 C          -3.5085   12.6560   -0.7043 C.ar    1  LIG1        0.1093
     39 O          -3.0064   11.4165   -0.8093 O.2     1  LIG1       -0.4573
     40 H          -2.9040   13.4646   -1.0745 H       1  LIG1        0.1042
     41 C          -6.1408   10.6992    0.8384 C.1     1  LIG1       -0.0645
     42 C          -7.0929   10.2551    1.4198 C.1     1  LIG1       -0.1138
     43 H          -7.9339    9.8515    1.9348 H       1  LIG1        0.1232
     44 C          -5.5837   13.7433    0.1680 C.1     1  LIG1       -0.0653
     45 C          -6.2965   14.6776    0.4122 C.1     1  LIG1       -0.1138
     46 H          -6.9299   15.5057    0.6320 H       1  LIG1        0.1232
@<TRIPOS>BOND
     1    12    11    1
     2    34    33    1
     3    11    10    3
     4    33    32    3
     5    40    38    1
     6    32    26    1
     7    31    30    1
     8    10     3    1
     9    39    38   ar
    10    39    35   ar
    11    30    29    3
    12    38    37   ar
    13    29    25    1
    14    26    25   ar
    15    26    27   ar
    16    25    24   ar
    17     9     8    1
    18    27    35    1
    19    27    28   ar
    20    35    36   ar
    21     8     7    3
    22    24    28   ar
    23    24    16    1
    24    37    36   ar
    25    37    44    1
    26     3     2   ar
    27     3     4   ar
    28     7     2    1
    29    16    17   ar
    30    16    15   ar
    31    17    13   ar
    32    36    41    1
    33    44    45    3
    34    15    21    1
    35    15    14   ar
    36     2     1   ar
    37    13     4    1
    38    13    14   ar
    39    21    22    3
    40     4     5   ar
    41    22    23    1
    42    45    46    1
    43    14    18    1
    44    18    19    3
    45    41    42    3
    46     1     5   ar
    47     1     6    1
    48    19    20    1
    49    42    43    1
