@<TRIPOS>MOLECULE
mol_data/opt/m06hf/geoms/mol2/12ee12ee-12ee12ee.out
 46 49 0 0 0
SMALL
GASTEIGER

@<TRIPOS>ATOM
      1 C           0.3328    1.7162    0.0265 C.ar    1  LIG1        0.1093
      2 C           1.6405    1.7693   -0.3365 C.ar    1  LIG1        0.0785
      3 C           1.9797    3.1769   -0.3801 C.ar    1  LIG1        0.0888
      4 C           0.8333    3.8331   -0.0286 C.ar    1  LIG1        0.1875
      5 O          -0.1558    2.9529    0.2128 O.2     1  LIG1       -0.4573
      6 H          -0.3407    0.8931    0.1833 H       1  LIG1        0.1042
      7 C           2.5066    0.6675   -0.6259 C.1     1  LIG1       -0.0653
      8 C           3.2386   -0.2519   -0.8703 C.1     1  LIG1       -0.1138
      9 H           3.8913   -1.0647   -1.0903 H       1  LIG1        0.1232
     10 C           3.2321    3.7483   -0.7592 C.1     1  LIG1       -0.0645
     11 C           4.2780    4.2328   -1.0975 C.1     1  LIG1       -0.1138
     12 H           5.1946    4.6818   -1.4046 H       1  LIG1        0.1232
     13 C           0.5303    5.2423    0.1090 C.ar    1  LIG1        0.1885
     14 C          -0.6472    5.9381    0.1465 C.ar    1  LIG1        0.0896
     15 C          -0.2720    7.3278    0.2766 C.ar    1  LIG1        0.0896
     16 C           1.0956    7.3361    0.3059 C.ar    1  LIG1        0.1885
     17 O           1.5733    6.0841    0.2058 O.2     1  LIG1       -0.4460
     18 C          -1.9782    5.4282    0.0577 C.1     1  LIG1       -0.0645
     19 C          -3.1046    5.0216   -0.0211 C.1     1  LIG1       -0.1138
     20 H          -4.1053    4.6631   -0.0918 H       1  LIG1        0.1232
     21 C          -1.1587    8.4434    0.3628 C.1     1  LIG1       -0.0645
     22 C          -1.9128    9.3741    0.4343 C.1     1  LIG1       -0.1138
     23 H          -2.5791   10.2030    0.4967 H       1  LIG1        0.1232
     24 C           2.0625    8.4055    0.4278 C.ar    1  LIG1        0.1885
     25 C           3.3977    8.3992    0.7245 C.ar    1  LIG1        0.0896
     26 C           3.8013    9.7872    0.7055 C.ar    1  LIG1        0.0896
     27 C           2.6758   10.4952    0.3919 C.ar    1  LIG1        0.1885
     28 O           1.6294    9.6616    0.2292 O.2     1  LIG1       -0.4460
     29 C           4.2143    7.2748    1.0482 C.1     1  LIG1       -0.0645
     30 C           4.8936    6.3284    1.3381 C.1     1  LIG1       -0.1138
     31 H           5.4762    5.4759    1.6009 H       1  LIG1        0.1232
     32 C           5.0957   10.2982    1.0258 C.1     1  LIG1       -0.0645
     33 C           6.1830   10.7192    1.3117 C.1     1  LIG1       -0.1138
     34 H           7.1451   11.0981    1.5688 H       1  LIG1        0.1232
     35 C           2.4357   11.9164    0.2082 C.ar    1  LIG1        0.1875
     36 C           3.1822   12.9041   -0.3665 C.ar    1  LIG1        0.0888
     37 C           2.3956   14.1124   -0.2233 C.ar    1  LIG1        0.0785
     38 C           1.2530   13.7338    0.4061 C.ar    1  LIG1        0.1093
     39 O           1.2716   12.4181    0.6686 O.2     1  LIG1       -0.4573
     40 H           0.3819   14.2847    0.7124 H       1  LIG1        0.1042
     41 C           4.4378   12.7739   -1.0336 C.1     1  LIG1       -0.0645
     42 C           5.4842   12.6637   -1.6115 C.1     1  LIG1       -0.1138
     43 H           6.4114   12.5562   -2.1249 H       1  LIG1        0.1232
     44 C           2.7476   15.4241   -0.6736 C.1     1  LIG1       -0.0653
     45 C           3.0508   16.5211   -1.0546 C.1     1  LIG1       -0.1138
     46 H           3.3247   17.4925   -1.3956 H       1  LIG1        0.1232
@<TRIPOS>BOND
     1    43    42    1
     2    42    41    3
     3    12    11    1
     4    46    45    1
     5    11    10    3
     6     9     8    1
     7    45    44    3
     8    41    36    1
     9     8     7    3
    10    10     3    1
    11    44    37    1
    12     7     2    1
    13     3     2   ar
    14     3     4   ar
    15    36    37   ar
    16    36    35   ar
    17     2     1   ar
    18    37    38   ar
    19    20    19    1
    20     4    13    1
    21     4     5   ar
    22    19    18    3
    23     1     6    1
    24     1     5   ar
    25    18    14    1
    26    13    14   ar
    27    13    17   ar
    28    14    15   ar
    29    17    16   ar
    30    35    27    1
    31    35    39   ar
    32    28    27   ar
    33    28    24   ar
    34    15    16   ar
    35    15    21    1
    36    16    24    1
    37    21    22    3
    38    27    26   ar
    39    38    39   ar
    40    38    40    1
    41    24    25   ar
    42    22    23    1
    43    26    25   ar
    44    26    32    1
    45    25    29    1
    46    32    33    3
    47    29    30    3
    48    33    34    1
    49    30    31    1
