@<TRIPOS>MOLECULE
mol_data/opt/m06hf/geoms/mol2/12ee12ee12ee12ee.out
 46 49 0 0 0
SMALL
GASTEIGER

@<TRIPOS>ATOM
      1 C           0.8926    2.2061    2.0823 C.ar    1  LIG1        0.1093
      2 C           1.9072    1.9648    1.2119 C.ar    1  LIG1        0.0785
      3 C           1.9957    3.1458    0.3769 C.ar    1  LIG1        0.0888
      4 C           1.0287    3.9898    0.8402 C.ar    1  LIG1        0.1875
      5 O           0.3627    3.4192    1.8646 O.2     1  LIG1       -0.4573
      6 H           0.4638    1.6183    2.8742 H       1  LIG1        0.1042
      7 C           2.7112    0.7848    1.1218 C.1     1  LIG1       -0.0653
      8 C           3.3879   -0.2031    1.0425 C.1     1  LIG1       -0.1138
      9 H           3.9921   -1.0772    0.9685 H       1  LIG1        0.1232
     10 C           2.8659    3.3451   -0.7370 C.1     1  LIG1       -0.0645
     11 C           3.5868    3.5053   -1.6831 C.1     1  LIG1       -0.1138
     12 H           4.2196    3.6546   -2.5268 H       1  LIG1        0.1232
     13 C           0.6145    5.3224    0.4327 C.ar    1  LIG1        0.1885
     14 C           1.3175    6.4177    0.0183 C.ar    1  LIG1        0.0896
     15 C           0.3252    7.4301   -0.2702 C.ar    1  LIG1        0.0896
     16 C          -0.8787    6.8586    0.0285 C.ar    1  LIG1        0.1885
     17 O          -0.7050    5.5901    0.4453 O.2     1  LIG1       -0.4460
     18 C           2.7348    6.5669   -0.0709 C.1     1  LIG1       -0.0645
     19 C           3.9256    6.7068   -0.1318 C.1     1  LIG1       -0.1138
     20 H           4.9836    6.8233   -0.1809 H       1  LIG1        0.1232
     21 C           0.5664    8.7323   -0.8032 C.1     1  LIG1       -0.0645
     22 C           0.7690    9.8206   -1.2672 C.1     1  LIG1       -0.1138
     23 H           0.9376   10.7869   -1.6825 H       1  LIG1        0.1232
     24 C          -2.2428    7.3582   -0.0286 C.ar    1  LIG1        0.1885
     25 C          -2.7927    8.5720    0.2703 C.ar    1  LIG1        0.0896
     26 C          -4.2042    8.4401   -0.0184 C.ar    1  LIG1        0.0896
     27 C          -4.3749    7.1499   -0.4330 C.ar    1  LIG1        0.1885
     28 O          -3.1947    6.5020   -0.4456 O.2     1  LIG1       -0.4460
     29 C          -2.1359    9.7219    0.8035 C.1     1  LIG1       -0.0645
     30 C          -1.5877   10.6835    1.2677 C.1     1  LIG1       -0.1138
     31 H          -1.0923   11.5301    1.6832 H       1  LIG1        0.1232
     32 C          -5.1899    9.4694    0.0710 C.1     1  LIG1       -0.0645
     33 C          -6.0086   10.3452    0.1319 C.1     1  LIG1       -0.1138
     34 H          -6.7411   11.1175    0.1810 H       1  LIG1        0.1232
     35 C          -5.5518    6.4001   -0.8407 C.ar    1  LIG1        0.1875
     36 C          -6.8352    6.3802   -0.3773 C.ar    1  LIG1        0.0888
     37 C          -7.5303    5.4216   -1.2126 C.ar    1  LIG1        0.0785
     38 C          -6.5998    4.9507   -2.0831 C.ar    1  LIG1        0.1093
     39 O          -5.4118    5.5346   -1.8653 O.2     1  LIG1       -0.4573
     40 H          -6.6521    4.2251   -2.8751 H       1  LIG1        0.1042
     41 C          -7.3708    7.0942    0.7366 C.1     1  LIG1       -0.0645
     42 C          -7.8177    7.6818    1.6829 C.1     1  LIG1       -0.1138
     43 H          -8.2045    8.2043    2.5267 H       1  LIG1        0.1232
     44 C          -8.9063    5.0399   -1.1226 C.1     1  LIG1       -0.0653
     45 C         -10.0609    4.7227   -1.0434 C.1     1  LIG1       -0.1138
     46 H         -11.0867    4.4453   -0.9693 H       1  LIG1        0.1232
@<TRIPOS>BOND
     1    40    38    1
     2    12    11    1
     3    38    39   ar
     4    38    37   ar
     5    39    35   ar
     6    11    10    3
     7    23    22    1
     8    22    21    3
     9    37    44    1
    10    37    36   ar
    11    44    45    3
    12    45    46    1
    13    35    27    1
    14    35    36   ar
    15    21    15    1
    16    10     3    1
    17    28    27   ar
    18    28    24   ar
    19    27    26   ar
    20    36    41    1
    21    15    14   ar
    22    15    16   ar
    23    20    19    1
    24    19    18    3
    25    18    14    1
    26    24    16    1
    27    24    25   ar
    28    26    32    1
    29    26    25   ar
    30    14    13   ar
    31    16    17   ar
    32    32    33    3
    33    33    34    1
    34    25    29    1
    35     3     4   ar
    36     3     2   ar
    37    13    17   ar
    38    13     4    1
    39    41    42    3
    40    29    30    3
    41     4     5   ar
    42     9     8    1
    43     8     7    3
    44     7     2    1
    45     2     1   ar
    46    30    31    1
    47    42    43    1
    48     5     1   ar
    49     1     6    1
