@<TRIPOS>MOLECULE
mol_data/opt/m06hf/geoms/mol2/12ee12ee-12ee-12ee-.out
 46 49 0 0 0
SMALL
GASTEIGER

@<TRIPOS>ATOM
      1 C          -0.0216    1.7612    0.4805 C.ar    1  LIG1        0.1093
      2 C           1.2982    1.7245    0.8019 C.ar    1  LIG1        0.0785
      3 C           1.7721    3.0882    0.6783 C.ar    1  LIG1        0.0888
      4 C           0.6803    3.8128    0.2909 C.ar    1  LIG1        0.1875
      5 O          -0.3958    3.0138    0.1739 O.2     1  LIG1       -0.4573
      6 H          -0.7769    0.9975    0.4309 H       1  LIG1        0.1042
      7 C           2.0694    0.5804    1.1826 C.1     1  LIG1       -0.0653
      8 C           2.7237   -0.3744    1.5011 C.1     1  LIG1       -0.1138
      9 H           3.3076   -1.2193    1.7854 H       1  LIG1        0.1232
     10 C           3.1011    3.5523    0.9170 C.1     1  LIG1       -0.0645
     11 C           4.2209    3.9316    1.1233 C.1     1  LIG1       -0.1138
     12 H           5.2121    4.2768    1.3054 H       1  LIG1        0.1232
     13 C           0.4998    5.2200    0.0008 C.ar    1  LIG1        0.1885
     14 C          -0.5923    5.9505   -0.3802 C.ar    1  LIG1        0.0896
     15 C          -0.1152    7.3082   -0.5236 C.ar    1  LIG1        0.0896
     16 C           1.2113    7.2695   -0.2010 C.ar    1  LIG1        0.1885
     17 O           1.5792    6.0105    0.1084 O.2     1  LIG1       -0.4460
     18 C          -1.9246    5.4956   -0.6186 C.1     1  LIG1       -0.0645
     19 C          -3.0501    5.1348   -0.8275 C.1     1  LIG1       -0.1138
     20 H          -4.0480    4.8122   -1.0140 H       1  LIG1        0.1232
     21 C          -0.8680    8.4313   -0.9825 C.1     1  LIG1       -0.0645
     22 C          -1.4959    9.3697   -1.3896 C.1     1  LIG1       -0.1138
     23 H          -2.0441   10.2065   -1.7560 H       1  LIG1        0.1232
     24 C           2.2370    8.2969   -0.1476 C.ar    1  LIG1        0.1885
     25 C           2.2147    9.5936    0.2791 C.ar    1  LIG1        0.0896
     26 C           3.5507   10.1000    0.0509 C.ar    1  LIG1        0.0896
     27 C           4.2576    9.0507   -0.4626 C.ar    1  LIG1        0.1885
     28 O           3.4665    7.9683   -0.5871 O.2     1  LIG1       -0.4460
     29 C           1.1235   10.2990    0.8699 C.1     1  LIG1       -0.0645
     30 C           0.2103   10.8869    1.3808 C.1     1  LIG1       -0.1138
     31 H          -0.6054   11.4002    1.8344 H       1  LIG1        0.1232
     32 C           4.0036   11.4348    0.2755 C.1     1  LIG1       -0.0645
     33 C           4.3741   12.5626    0.4516 C.1     1  LIG1       -0.1138
     34 H           4.7108   13.5617    0.6031 H       1  LIG1        0.1232
     35 C           5.6425    8.9166   -0.8851 C.ar    1  LIG1        0.1875
     36 C           6.8132    9.3994   -0.3757 C.ar    1  LIG1        0.0888
     37 C           7.8479    8.9221   -1.2713 C.ar    1  LIG1        0.0785
     38 C           7.2044    8.1904   -2.2188 C.ar    1  LIG1        0.1093
     39 O           5.8825    8.1841   -1.9916 O.2     1  LIG1       -0.4573
     40 H           7.5577    7.6443   -3.0754 H       1  LIG1        0.1042
     41 C           6.9996   10.1572    0.8196 C.1     1  LIG1       -0.0645
     42 C           7.1616   10.7812    1.8319 C.1     1  LIG1       -0.1138
     43 H           7.2966   11.3330    2.7328 H       1  LIG1        0.1232
     44 C           9.2550    9.1574   -1.1632 C.1     1  LIG1       -0.0653
     45 C          10.4344    9.3571   -1.0660 C.1     1  LIG1       -0.1138
     46 H          11.4802    9.5385   -0.9759 H       1  LIG1        0.1232
@<TRIPOS>BOND
     1    40    38    1
     2    38    39   ar
     3    38    37   ar
     4    39    35   ar
     5    23    22    1
     6    22    21    3
     7    37    44    1
     8    37    36   ar
     9    44    45    3
    10    45    46    1
    11    20    19    1
    12    21    15    1
    13    35    27    1
    14    35    36   ar
    15    19    18    3
    16    18    14    1
    17    28    27   ar
    18    28    24   ar
    19    15    14   ar
    20    15    16   ar
    21    27    26   ar
    22    14    13   ar
    23    36    41    1
    24    16    24    1
    25    16    17   ar
    26    24    25   ar
    27    13    17   ar
    28    13     4    1
    29    26    32    1
    30    26    25   ar
    31     5     4   ar
    32     5     1   ar
    33    32    33    3
    34    25    29    1
    35     4     3   ar
    36     6     1    1
    37    33    34    1
    38     1     2   ar
    39     3     2   ar
    40     3    10    1
    41     2     7    1
    42    41    42    3
    43    29    30    3
    44    10    11    3
    45    11    12    1
    46     7     8    3
    47    30    31    1
    48     8     9    1
    49    42    43    1
