@<TRIPOS>MOLECULE
mol_data/opt/m06hf/geoms/mol2/12ef6hh-13ea-13ha-.out
 45 48 0 0 0
SMALL
GASTEIGER

@<TRIPOS>ATOM
      1 C           0.7043    1.8654   -1.3992 C.ar    1  LIG1        0.1116
      2 C           1.4351    1.7095   -0.2639 C.ar    1  LIG1        0.1044
      3 C           1.5089    3.0266    0.3203 C.ar    1  LIG1        0.1785
      4 C           0.8346    3.8665   -0.5080 C.ar    1  LIG1        0.1806
      5 O           0.3336    3.1466   -1.5554 O.2     1  LIG1       -0.4578
      6 H           0.3904    1.1657   -2.1533 H       1  LIG1        0.1043
      7 C           2.0014    0.5022    0.2538 C.1     1  LIG1       -0.0628
      8 C           2.4765   -0.5100    0.6900 C.1     1  LIG1       -0.1137
      9 H           2.9000   -1.4044    1.0839 H       1  LIG1        0.1232
     10 O           2.1419    3.3029    1.4832 O.3     1  LIG1       -0.5024
     11 H           1.7765    4.1107    1.8665 H       1  LIG1        0.2923
     12 C          -0.6419    5.9033   -0.7258 C.ar    1  LIG1        0.1279
     13 C           0.6068    5.3114   -0.4202 C.ar    1  LIG1        0.0622
     14 C           1.6180    6.1383    0.0407 C.ar    1  LIG1       -0.0248
     15 C           1.4234    7.5163    0.2179 C.ar    1  LIG1        0.0532
     16 C           0.1662    8.0063   -0.1597 C.ar    1  LIG1        0.1110
     17 N          -0.8181    7.2042   -0.5971 N.ar    1  LIG1       -0.2284
     18 H           2.5856    5.7044    0.2735 H       1  LIG1        0.0645
     19 N          -1.7277    5.1444   -1.1199 N.pl3   1  LIG1       -0.3426
     20 H          -2.4716    5.6970   -1.5206 H       1  LIG1        0.1437
     21 H          -1.5212    4.2842   -1.6057 H       1  LIG1        0.1437
     22 N           2.4086    8.2850    0.8273 N.pl3   1  LIG1       -0.3563
     23 H           3.3336    7.8807    0.7781 H       1  LIG1        0.1424
     24 H           2.4200    9.2683    0.5927 H       1  LIG1        0.1424
     25 C          -0.2495    9.4224   -0.0464 C.ar    1  LIG1        0.0829
     26 C           0.3620   10.6622   -0.2099 C.ar    1  LIG1        0.0521
     27 C          -0.6388   11.6602   -0.0107 C.ar    1  LIG1       -0.0188
     28 C          -1.8237   11.0050    0.2422 C.ar    1  LIG1        0.0664
     29 N          -1.5611    9.6636    0.2126 N.ar    1  LIG1       -0.3507
     30 H          -2.2402    8.9147    0.2246 H       1  LIG1        0.1660
     31 C           1.7164   10.9285   -0.5944 C.1     1  LIG1       -0.0675
     32 C           2.8518   11.1675   -0.9174 C.1     1  LIG1       -0.1138
     33 H           3.8470   11.3892   -1.2264 H       1  LIG1        0.1232
     34 H          -0.4953   12.7276   -0.0292 H       1  LIG1        0.0652
     35 C          -3.1645   11.5300    0.4775 C.ar    1  LIG1        0.0838
     36 C          -3.8382   12.5305   -0.1901 C.ar    1  LIG1        0.0516
     37 C          -5.1260   12.6435    0.4100 C.ar    1  LIG1       -0.0230
     38 C          -5.1873   11.7095    1.4173 C.ar    1  LIG1        0.0040
     39 N          -4.0067   11.0378    1.4521 N.ar    1  LIG1       -0.3580
     40 H          -3.7271   10.3766    2.1582 H       1  LIG1        0.1654
     41 H          -5.9798   11.4848    2.1097 H       1  LIG1        0.0807
     42 N          -3.3304   13.3125   -1.2444 N.pl3   1  LIG1       -0.3563
     43 H          -2.5240   12.8736   -1.6767 H       1  LIG1        0.1424
     44 H          -4.0346   13.5078   -1.9457 H       1  LIG1        0.1424
     45 H          -5.9044   13.3332    0.1300 H       1  LIG1        0.0651
@<TRIPOS>BOND
     1     6     1    1
     2    44    42    1
     3    43    42    1
     4    21    19    1
     5     5     1   ar
     6     5     4   ar
     7    20    19    1
     8     1     2   ar
     9    42    36    1
    10    33    32    1
    11    19    12    1
    12    32    31    3
    13    12    17   ar
    14    12    13   ar
    15    17    16   ar
    16    31    26    1
    17     4    13    1
    18     4     3   ar
    19    13    14   ar
    20     2     7    1
    21     2     3   ar
    22    26    25   ar
    23    26    27   ar
    24    36    37   ar
    25    36    35   ar
    26    16    25    1
    27    16    15   ar
    28    25    29   ar
    29    34    27    1
    30    27    28   ar
    31    14    15   ar
    32    14    18    1
    33    45    37    1
    34    29    30    1
    35    29    28   ar
    36    15    22    1
    37    28    35    1
    38     7     8    3
    39     3    10    1
    40    37    38   ar
    41    35    39   ar
    42    24    22    1
    43     8     9    1
    44    23    22    1
    45    38    39   ar
    46    38    41    1
    47    39    40    1
    48    10    11    1
