@<TRIPOS>MOLECULE
mol_data/opt/m06hf/geoms/mol2/12ef6la4if-12fe-.out
 49 52 0 0 0
SMALL
GASTEIGER

@<TRIPOS>ATOM
      1 C           0.3847    1.5832   -0.6883 C.ar    1  LIG1        0.1116
      2 C           1.6574    1.6627   -0.2091 C.ar    1  LIG1        0.1044
      3 C           1.8769    3.0667    0.0245 C.ar    1  LIG1        0.1785
      4 C           0.7321    3.7087   -0.3336 C.ar    1  LIG1        0.1823
      5 O          -0.1767    2.7935   -0.7620 O.2     1  LIG1       -0.4577
      6 H          -0.2114    0.7434   -0.9982 H       1  LIG1        0.1043
      7 C           2.5780    0.5923    0.0236 C.1     1  LIG1       -0.0628
      8 C           3.3541   -0.3025    0.2216 C.1     1  LIG1       -0.1137
      9 H           4.0462   -1.0922    0.4006 H       1  LIG1        0.1232
     10 O           3.0269    3.5857    0.5176 O.3     1  LIG1       -0.5024
     11 H           2.8434    4.4421    0.9233 H       1  LIG1        0.2923
     12 C          -0.8042    5.6577    0.1451 C.ar    1  LIG1        0.2261
     13 C           0.4239    5.1416   -0.3323 C.ar    1  LIG1        0.0824
     14 C           1.3542    6.0696   -0.7743 C.ar    1  LIG1       -0.0438
     15 C           1.0731    7.4369   -0.7129 C.ar    1  LIG1       -0.0348
     16 C          -0.1589    7.8355   -0.2111 C.ar    1  LIG1        0.0752
     17 N          -1.0793    6.9418    0.1910 N.ar    1  LIG1       -0.2123
     18 H           2.2921    5.7179   -1.1889 H       1  LIG1        0.0627
     19 O          -1.7159    4.7776    0.5701 O.3     1  LIG1       -0.4792
     20 C          -2.9440    5.3054    1.0639 C.3     1  LIG1        0.0804
     21 H          -3.5193    4.4390    1.3764 H       1  LIG1        0.0660
     22 H          -2.7561    5.9753    1.9021 H       1  LIG1        0.0660
     23 H          -3.4623    5.8515    0.2761 H       1  LIG1        0.0660
     24 H           1.7775    8.1639   -1.0868 H       1  LIG1        0.0639
     25 C           0.2867   10.3085    0.2454 C.ar    1  LIG1       -0.0404
     26 C          -0.2293   11.6040    0.2660 C.ar    1  LIG1       -0.0439
     27 C          -0.5730    9.2705   -0.1422 C.ar    1  LIG1        0.0069
     28 C          -1.5440   11.9037   -0.0928 C.ar    1  LIG1        0.0626
     29 H           0.4097   12.4206    0.5800 H       1  LIG1        0.0629
     30 C          -1.8984    9.5518   -0.4781 C.ar    1  LIG1       -0.0100
     31 C          -2.3875   10.8500   -0.4749 C.ar    1  LIG1        0.1283
     32 H          -2.5488    8.7276   -0.7501 H       1  LIG1        0.0661
     33 C           1.7230   10.0980    0.6992 C.3     1  LIG1       -0.0391
     34 H           1.9956   10.8862    1.4006 H       1  LIG1        0.0278
     35 H           2.4157   10.1470   -0.1444 H       1  LIG1        0.0278
     36 H           1.8434    9.1343    1.1929 H       1  LIG1        0.0278
     37 O          -3.6650   11.1338   -0.8423 O.3     1  LIG1       -0.5060
     38 H          -4.1200   10.3247   -1.0974 H       1  LIG1        0.2922
     39 C          -1.9852   13.3015   -0.0602 C.ar    1  LIG1        0.1807
     40 C          -1.2779   14.4642   -0.1238 C.ar    1  LIG1        0.1785
     41 C          -2.2260   15.5410   -0.0049 C.ar    1  LIG1        0.1044
     42 C          -3.4394   14.9352    0.1231 C.ar    1  LIG1        0.1116
     43 O          -3.3025   13.6114    0.0950 O.2     1  LIG1       -0.4578
     44 H          -4.4340   15.3285    0.2368 H       1  LIG1        0.1043
     45 O           0.0616   14.6008   -0.2671 O.3     1  LIG1       -0.5024
     46 H           0.2743   15.5412   -0.3234 H       1  LIG1        0.2923
     47 C          -1.8851   16.9292   -0.0352 C.1     1  LIG1       -0.0628
     48 C          -1.5347   18.0790   -0.0683 C.1     1  LIG1       -0.1137
     49 H          -1.2469   19.1046   -0.0964 H       1  LIG1        0.1232
@<TRIPOS>BOND
     1    18    14    1
     2    38    37    1
     3    24    15    1
     4     6     1    1
     5    37    31    1
     6    14    15   ar
     7    14    13   ar
     8     5     1   ar
     9     5     4   ar
    10    32    30    1
    11    15    16   ar
    12     1     2   ar
    13    30    31   ar
    14    30    27   ar
    15    31    28   ar
    16     4    13    1
    17     4     3   ar
    18    13    12   ar
    19    46    45    1
    20    45    40    1
    21    16    27    1
    22    16    17   ar
    23     2     7    1
    24     2     3   ar
    25    35    33    1
    26    27    25   ar
    27    40    39   ar
    28    40    41   ar
    29    49    48    1
    30    28    39    1
    31    28    26   ar
    32    48    47    3
    33    39    43   ar
    34    47    41    1
    35    41    42   ar
    36     7     8    3
    37     3    10    1
    38    43    42   ar
    39    42    44    1
    40    12    17   ar
    41    12    19    1
    42     8     9    1
    43    25    26   ar
    44    25    33    1
    45    26    29    1
    46    23    20    1
    47    10    11    1
    48    19    20    1
    49    33    36    1
    50    33    34    1
    51    20    21    1
    52    20    22    1
