@<TRIPOS>MOLECULE
mol_data/opt/m06hf/geoms/mol2/12ef12ef12ef12ef.out
 42 45 0 0 0
SMALL
GASTEIGER

@<TRIPOS>ATOM
      1 C           0.4453    1.6851    0.0001 C.ar    1  LIG1        0.1118
      2 C           1.8055    1.7401    0.0001 C.ar    1  LIG1        0.1045
      3 C           2.1343    3.1434    0.0000 C.ar    1  LIG1        0.1815
      4 C           0.9384    3.8115    0.0000 C.ar    1  LIG1        0.2134
      5 O          -0.0829    2.9091    0.0001 O.2     1  LIG1       -0.4547
      6 H          -0.2379    0.8538    0.0001 H       1  LIG1        0.1043
      7 C           2.7286    0.6481    0.0001 C.1     1  LIG1       -0.0628
      8 C           3.5026   -0.2691    0.0001 C.1     1  LIG1       -0.1137
      9 H           4.1949   -1.0783    0.0000 H       1  LIG1        0.1232
     10 O           3.3987    3.5777   -0.0000 O.3     1  LIG1       -0.5023
     11 H           3.4491    4.5458   -0.0000 H       1  LIG1        0.2923
     12 C           0.5651    5.2096   -0.0000 C.ar    1  LIG1        0.1934
     13 C           1.2889    6.3775   -0.0000 C.ar    1  LIG1        0.1157
     14 C           0.3195    7.4392   -0.0001 C.ar    1  LIG1        0.1823
     15 C          -0.9082    6.8349   -0.0001 C.ar    1  LIG1        0.2144
     16 O          -0.7420    5.4803   -0.0001 O.2     1  LIG1       -0.4434
     17 C           2.7048    6.5582   -0.0000 C.1     1  LIG1       -0.0621
     18 C           3.8954    6.7394    0.0000 C.1     1  LIG1       -0.1137
     19 H           4.9473    6.9161    0.0001 H       1  LIG1        0.1232
     20 O           0.6859    8.7239   -0.0001 O.3     1  LIG1       -0.5023
     21 H          -0.0800    9.3197   -0.0001 H       1  LIG1        0.2923
     22 C          -2.2690    7.3216   -0.0001 C.ar    1  LIG1        0.1934
     23 C          -2.8154    8.5821   -0.0001 C.ar    1  LIG1        0.1157
     24 C          -4.2409    8.3903   -0.0002 C.ar    1  LIG1        0.1823
     25 C          -4.4444    7.0392   -0.0002 C.ar    1  LIG1        0.2144
     26 O          -3.2375    6.4025   -0.0002 O.2     1  LIG1       -0.4434
     27 C          -2.1559    9.8477   -0.0001 C.1     1  LIG1       -0.0621
     28 C          -1.6283   10.9304   -0.0000 C.1     1  LIG1       -0.1137
     29 H          -1.1814   11.8987    0.0000 H       1  LIG1        0.1232
     30 O          -5.0890    9.4246   -0.0002 O.3     1  LIG1       -0.5023
     31 H          -6.0142    9.1329   -0.0003 H       1  LIG1        0.2923
     32 C          -5.6222    6.1967   -0.0003 C.ar    1  LIG1        0.1924
     33 C          -6.9679    6.4642   -0.0003 C.ar    1  LIG1        0.1149
     34 C          -7.6124    5.1740   -0.0004 C.ar    1  LIG1        0.1709
     35 C          -6.6259    4.2483   -0.0005 C.ar    1  LIG1        0.1353
     36 O          -5.4182    4.8755   -0.0004 O.2     1  LIG1       -0.4547
     37 H          -6.6164    3.1741   -0.0006 H       1  LIG1        0.1068
     38 C          -7.6338    7.7267   -0.0002 C.1     1  LIG1       -0.0621
     39 C          -8.2237    8.7773   -0.0001 C.1     1  LIG1       -0.1137
     40 H          -8.7661    9.6957   -0.0000 H       1  LIG1        0.1232
     41 O          -8.9583    5.0462   -0.0004 O.3     1  LIG1       -0.5028
     42 H          -9.2131    4.1174   -0.0005 H       1  LIG1        0.2923
@<TRIPOS>BOND
     1    37    35    1
     2    42    41    1
     3    35    34   ar
     4    35    36   ar
     5    41    34    1
     6    34    33   ar
     7    36    32   ar
     8    32    33   ar
     9    32    25    1
    10    33    38    1
    11    31    30    1
    12    25    24   ar
    13    25    26   ar
    14    30    24    1
    15    24    23   ar
    16    26    22   ar
    17    38    39    3
    18    21    20    1
    19    22    23   ar
    20    22    15    1
    21    23    27    1
    22    20    14    1
    23    39    40    1
    24    15    14   ar
    25    15    16   ar
    26    14    13   ar
    27    27    28    3
    28    16    12   ar
    29    11    10    1
    30    13    12   ar
    31    13    17    1
    32    28    29    1
    33    10     3    1
    34    12     4    1
    35    17    18    3
    36     3     4   ar
    37     3     2   ar
    38     9     8    1
    39     4     5   ar
    40    18    19    1
    41     2     7    1
    42     2     1   ar
    43     5     1   ar
    44     7     8    3
    45     1     6    1
