@<TRIPOS>MOLECULE
mol_data/opt/m06hf/geoms/mol2/12ef12ef.out
 22 23 0 0 0
SMALL
GASTEIGER

@<TRIPOS>ATOM
      1 C           0.1575    1.8082    0.0000 C.ar    1  LIG1        0.1118
      2 C           1.5175    1.8088    0.0000 C.ar    1  LIG1        0.1045
      3 C           1.9029    3.1989   -0.0000 C.ar    1  LIG1        0.1815
      4 C           0.7369    3.9141   -0.0000 C.ar    1  LIG1        0.2134
      5 O          -0.3205    3.0541    0.0000 O.2     1  LIG1       -0.4547
      6 H          -0.5597    1.0063    0.0001 H       1  LIG1        0.1043
      7 C           2.3962    0.6807    0.0001 C.1     1  LIG1       -0.0628
      8 C           3.1334   -0.2664    0.0001 C.1     1  LIG1       -0.1137
      9 H           3.7931   -1.1024    0.0002 H       1  LIG1        0.1232
     10 O           3.1854    3.5817   -0.0000 O.3     1  LIG1       -0.5023
     11 H           3.2743    4.5469   -0.0000 H       1  LIG1        0.2923
     12 C           0.4170    5.3288   -0.0001 C.ar    1  LIG1        0.1923
     13 C           1.1799    6.4687   -0.0000 C.ar    1  LIG1        0.1149
     14 C           0.2358    7.5593   -0.0002 C.ar    1  LIG1        0.1709
     15 C          -0.9975    7.0044   -0.0002 C.ar    1  LIG1        0.1353
     16 O          -0.8820    5.6482   -0.0002 O.2     1  LIG1       -0.4547
     17 H          -1.9931    7.4091   -0.0003 H       1  LIG1        0.1068
     18 C           2.6014    6.5978    0.0001 C.1     1  LIG1       -0.0621
     19 C           3.7980    6.7351    0.0002 C.1     1  LIG1       -0.1137
     20 H           4.8555    6.8733    0.0002 H       1  LIG1        0.1232
     21 O           0.6314    8.8524   -0.0002 O.3     1  LIG1       -0.5028
     22 H          -0.1312    9.4404   -0.0003 H       1  LIG1        0.2923
@<TRIPOS>BOND
     1    17    15    1
     2    22    21    1
     3    15    16   ar
     4    15    14   ar
     5    16    12   ar
     6    21    14    1
     7    14    13   ar
     8    12    13   ar
     9    12     4    1
    10    13    18    1
    11    11    10    1
    12    10     3    1
    13     4     3   ar
    14     4     5   ar
    15     3     2   ar
    16     5     1   ar
    17     1     2   ar
    18     1     6    1
    19     2     7    1
    20     7     8    3
    21    18    19    3
    22     8     9    1
    23    19    20    1
