@<TRIPOS>MOLECULE
mol_data/opt/m06hf/geoms/mol2/12ef12ef12ef-12ef-.out
 42 45 0 0 0
SMALL
GASTEIGER

@<TRIPOS>ATOM
      1 C           0.4879    1.6298    0.0001 C.ar    1  LIG1        0.1118
      2 C           1.8448    1.7270   -0.0000 C.ar    1  LIG1        0.1045
      3 C           2.1303    3.1402   -0.0001 C.ar    1  LIG1        0.1815
      4 C           0.9140    3.7704    0.0000 C.ar    1  LIG1        0.2134
      5 O          -0.0790    2.8369    0.0001 O.2     1  LIG1       -0.4547
      6 H          -0.1681    0.7770    0.0002 H       1  LIG1        0.1043
      7 C           2.8019    0.6644   -0.0000 C.1     1  LIG1       -0.0628
      8 C           3.6042   -0.2283   -0.0001 C.1     1  LIG1       -0.1137
      9 H           4.3219   -1.0158   -0.0001 H       1  LIG1        0.1232
     10 O           3.3806    3.6124   -0.0002 O.3     1  LIG1       -0.5023
     11 H           3.4044    4.5816   -0.0002 H       1  LIG1        0.2923
     12 C           0.4965    5.1551   -0.0000 C.ar    1  LIG1        0.1934
     13 C           1.1832    6.3476   -0.0000 C.ar    1  LIG1        0.1157
     14 C           0.1760    7.3721   -0.0001 C.ar    1  LIG1        0.1823
     15 C          -1.0241    6.7221   -0.0001 C.ar    1  LIG1        0.2144
     16 O          -0.8239    5.3786   -0.0000 O.2     1  LIG1       -0.4434
     17 C           2.5930    6.5723    0.0000 C.1     1  LIG1       -0.0621
     18 C           3.7757    6.7975    0.0001 C.1     1  LIG1       -0.1137
     19 H           4.8186    7.0191    0.0001 H       1  LIG1        0.1232
     20 O           0.4441    8.6834   -0.0001 O.3     1  LIG1       -0.5023
     21 H          -0.3788    9.1942   -0.0001 H       1  LIG1        0.2923
     22 C          -2.3471    7.2778   -0.0001 C.ar    1  LIG1        0.1934
     23 C          -3.6195    6.7794   -0.0001 C.ar    1  LIG1        0.1157
     24 C          -4.4851    7.9356   -0.0001 C.ar    1  LIG1        0.1823
     25 C          -3.6852    9.0351   -0.0002 C.ar    1  LIG1        0.2144
     26 O          -2.3788    8.6223   -0.0001 O.2     1  LIG1       -0.4434
     27 C          -4.0901    5.4332   -0.0001 C.1     1  LIG1       -0.0621
     28 C          -4.5591    4.3265   -0.0000 C.1     1  LIG1       -0.1137
     29 H          -4.9516    3.3360   -0.0000 H       1  LIG1        0.1232
     30 O          -5.8263    7.9030   -0.0002 O.3     1  LIG1       -0.5023
     31 H          -6.1211    6.9824   -0.0001 H       1  LIG1        0.2923
     32 C          -3.8953   10.4659   -0.0002 C.ar    1  LIG1        0.1924
     33 C          -5.0046   11.2664   -0.0003 C.ar    1  LIG1        0.1149
     34 C          -4.4961   12.6195   -0.0003 C.ar    1  LIG1        0.1709
     35 C          -3.1477   12.5334   -0.0002 C.ar    1  LIG1        0.1353
     36 O          -2.7845   11.2187   -0.0001 O.2     1  LIG1       -0.4547
     37 H          -2.3637   13.2663   -0.0001 H       1  LIG1        0.1068
     38 C          -6.4002   10.9701   -0.0004 C.1     1  LIG1       -0.0621
     39 C          -7.5952   10.8322   -0.0005 C.1     1  LIG1       -0.1137
     40 H          -8.6484   10.6705   -0.0006 H       1  LIG1        0.1232
     41 O          -5.2532   13.7371   -0.0003 O.3     1  LIG1       -0.5028
     42 H          -6.1843   13.4795   -0.0004 H       1  LIG1        0.2923
@<TRIPOS>BOND
     1    40    39    1
     2    39    38    3
     3    38    33    1
     4    42    41    1
     5    41    34    1
     6    33    34   ar
     7    33    32   ar
     8    34    35   ar
     9    32    25    1
    10    32    36   ar
    11    35    36   ar
    12    35    37    1
    13    25    24   ar
    14    25    26   ar
    15    10    11    1
    16    10     3    1
    17    30    24    1
    18    30    31    1
    19    24    23   ar
    20    26    22   ar
    21    21    20    1
    22     9     8    1
    23    23    22   ar
    24    23    27    1
    25    22    15    1
    26    15    14   ar
    27    15    16   ar
    28     8     7    3
    29    20    14    1
    30    27    28    3
    31     3     2   ar
    32     3     4   ar
    33    14    13   ar
    34    16    12   ar
    35    28    29    1
    36     7     2    1
    37    13    12   ar
    38    13    17    1
    39    12     4    1
    40     2     1   ar
    41     4     5   ar
    42    17    18    3
    43    18    19    1
    44     1     5   ar
    45     1     6    1
