@<TRIPOS>MOLECULE
mol_data/opt/m06hf/geoms/mol2/12ef12ef-12ef.out
 32 34 0 0 0
SMALL
GASTEIGER

@<TRIPOS>ATOM
      1 C           0.2817    1.7552    0.0002 C.ar    1  LIG1        0.1118
      2 C           1.6402    1.8571   -0.0001 C.ar    1  LIG1        0.1045
      3 C           1.9168    3.2721   -0.0002 C.ar    1  LIG1        0.1815
      4 C           0.6977    3.8884   -0.0000 C.ar    1  LIG1        0.2134
      5 O          -0.2947    2.9626    0.0003 O.2     1  LIG1       -0.4547
      6 H          -0.3714    0.9008    0.0004 H       1  LIG1        0.1043
      7 C           2.6012    0.7970   -0.0002 C.1     1  LIG1       -0.0628
      8 C           3.4138   -0.0869   -0.0003 C.1     1  LIG1       -0.1137
      9 H           4.1422   -0.8648   -0.0004 H       1  LIG1        0.1232
     10 O           3.1474    3.7955   -0.0005 O.3     1  LIG1       -0.5023
     11 H           3.1243    4.7666   -0.0006 H       1  LIG1        0.2923
     12 C           0.3942    5.2932   -0.0000 C.ar    1  LIG1        0.1934
     13 C          -0.7466    6.0470   -0.0000 C.ar    1  LIG1        0.1157
     14 C          -0.2997    7.4210   -0.0001 C.ar    1  LIG1        0.1823
     15 C           1.0594    7.3946   -0.0002 C.ar    1  LIG1        0.2144
     16 O           1.4745    6.0924   -0.0001 O.2     1  LIG1       -0.4434
     17 C          -2.1182    5.6558    0.0000 C.1     1  LIG1       -0.0621
     18 C          -3.2938    5.4047    0.0000 C.1     1  LIG1       -0.1137
     19 H          -4.3305    5.1591    0.0001 H       1  LIG1        0.1232
     20 O          -1.0923    8.5043   -0.0002 O.3     1  LIG1       -0.5023
     21 H          -2.0161    8.2204   -0.0001 H       1  LIG1        0.2923
     22 C           2.0876    8.4061   -0.0002 C.ar    1  LIG1        0.1924
     23 C           3.4536    8.3068    0.0000 C.ar    1  LIG1        0.1149
     24 C           3.9229    9.6713   -0.0002 C.ar    1  LIG1        0.1709
     25 C           2.8245   10.4631   -0.0006 C.ar    1  LIG1        0.1353
     26 O           1.7059    9.6872   -0.0006 O.2     1  LIG1       -0.4547
     27 H           2.6782   11.5274   -0.0008 H       1  LIG1        0.1068
     28 C           4.2713    7.1348    0.0005 C.1     1  LIG1       -0.0621
     29 C           5.0008    6.1780    0.0009 C.1     1  LIG1       -0.1137
     30 H           5.6441    5.3271    0.0013 H       1  LIG1        0.1232
     31 O           5.2396    9.9803   -0.0000 O.3     1  LIG1       -0.5028
     32 H           5.3642   10.9353   -0.0002 H       1  LIG1        0.2923
@<TRIPOS>BOND
     1    27    25    1
     2    26    25   ar
     3    26    22   ar
     4    11    10    1
     5    25    24   ar
     6    10     3    1
     7     9     8    1
     8     8     7    3
     9    22    15    1
    10    22    23   ar
    11     3     2   ar
    12     3     4   ar
    13    24    31    1
    14    24    23   ar
    15    32    31    1
    16     7     2    1
    17    15    14   ar
    18    15    16   ar
    19    20    14    1
    20    20    21    1
    21    14    13   ar
    22    16    12   ar
    23     2     1   ar
    24    12    13   ar
    25    12     4    1
    26    13    17    1
    27     4     5   ar
    28    17    18    3
    29    23    28    1
    30    18    19    1
    31     1     5   ar
    32     1     6    1
    33    28    29    3
    34    29    30    1
