@<TRIPOS>MOLECULE
mol_data/opt/m06hf/geoms/mol2/12ef12ef-12ef12ef-.out
 42 45 0 0 0
SMALL
GASTEIGER

@<TRIPOS>ATOM
      1 C           0.3614    1.6382    0.0000 C.ar    1  LIG1        0.1118
      2 C           1.7178    1.7702   -0.0002 C.ar    1  LIG1        0.1045
      3 C           1.9632    3.1907   -0.0002 C.ar    1  LIG1        0.1815
      4 C           0.7300    3.7798    0.0001 C.ar    1  LIG1        0.2134
      5 O          -0.2417    2.8320    0.0002 O.2     1  LIG1       -0.4547
      6 H          -0.2700    0.7675    0.0001 H       1  LIG1        0.1043
      7 C           2.6991    0.7299   -0.0005 C.1     1  LIG1       -0.0628
      8 C           3.5244   -0.1413   -0.0007 C.1     1  LIG1       -0.1137
      9 H           4.2606   -0.9113   -0.0006 H       1  LIG1        0.1232
     10 O           3.1809    3.7422   -0.0004 O.3     1  LIG1       -0.5023
     11 H           3.1359    4.7123   -0.0003 H       1  LIG1        0.2923
     12 C           0.3894    5.1751    0.0002 C.ar    1  LIG1        0.1934
     13 C          -0.7769    5.8903    0.0003 C.ar    1  LIG1        0.1157
     14 C          -0.3785    7.2777    0.0003 C.ar    1  LIG1        0.1823
     15 C           0.9829    7.2974    0.0002 C.ar    1  LIG1        0.2144
     16 O           1.4421    6.0089    0.0001 O.2     1  LIG1       -0.4434
     17 C          -2.1343    5.4527    0.0005 C.1     1  LIG1       -0.0621
     18 C          -3.3000    5.1580    0.0006 C.1     1  LIG1       -0.1137
     19 H          -4.3259    4.8692   -0.0001 H       1  LIG1        0.1232
     20 O          -1.2133    8.3277    0.0005 O.3     1  LIG1       -0.5023
     21 H          -2.1227    8.0011    0.0006 H       1  LIG1        0.2923
     22 C           1.9766    8.3383    0.0001 C.ar    1  LIG1        0.1934
     23 C           3.3491    8.2778    0.0001 C.ar    1  LIG1        0.1157
     24 C           3.7813    9.6489    0.0001 C.ar    1  LIG1        0.1823
     25 C           2.6491   10.4098    0.0000 C.ar    1  LIG1        0.2144
     26 O           1.5526    9.6073    0.0000 O.2     1  LIG1       -0.4434
     27 C           4.1989    7.1290    0.0002 C.1     1  LIG1       -0.0621
     28 C           4.9579    6.1961    0.0003 C.1     1  LIG1       -0.1137
     29 H           5.6305    5.3680    0.0002 H       1  LIG1        0.1232
     30 O           5.0668   10.0323    0.0001 O.3     1  LIG1       -0.5023
     31 H           5.1161   10.9979    0.0001 H       1  LIG1        0.2923
     32 C           2.4998   11.8409   -0.0001 C.ar    1  LIG1        0.1924
     33 C           1.4310   12.6878   -0.0004 C.ar    1  LIG1        0.1149
     34 C           1.9993   14.0198   -0.0004 C.ar    1  LIG1        0.1709
     35 C           3.3416   13.8798   -0.0000 C.ar    1  LIG1        0.1353
     36 O           3.6500   12.5439    0.0001 O.2     1  LIG1       -0.4547
     37 H           4.1565   14.5778    0.0001 H       1  LIG1        0.1068
     38 C           0.0311   12.4120   -0.0007 C.1     1  LIG1       -0.0621
     39 C          -1.1606   12.2533   -0.0010 C.1     1  LIG1       -0.1137
     40 H          -2.2123   12.0814   -0.0017 H       1  LIG1        0.1232
     41 O           1.2918   15.1688   -0.0006 O.3     1  LIG1       -0.5028
     42 H           0.3499   14.9539   -0.0009 H       1  LIG1        0.2923
@<TRIPOS>BOND
     1    40    39    1
     2    39    38    3
     3    42    41    1
     4    38    33    1
     5     8     9    1
     6     8     7    3
     7    41    34    1
     8     7     2    1
     9    10    11    1
    10    10     3    1
    11    33    34   ar
    12    33    32   ar
    13    34    35   ar
    14     2     3   ar
    15     2     1   ar
    16     3     4   ar
    17    19    18    1
    18    32    25    1
    19    32    36   ar
    20    35    37    1
    21    35    36   ar
    22     1     6    1
    23     1     5   ar
    24    25    26   ar
    25    25    24   ar
    26    26    22   ar
    27     4    12    1
    28     4     5   ar
    29    16    12   ar
    30    16    15   ar
    31    31    30    1
    32    24    30    1
    33    24    23   ar
    34    22    23   ar
    35    22    15    1
    36    23    27    1
    37    12    13   ar
    38    15    14   ar
    39    29    28    1
    40    27    28    3
    41    14    13   ar
    42    14    20    1
    43    13    17    1
    44    20    21    1
    45    17    18    3
