@<TRIPOS>MOLECULE
mol_data/opt/m06hf/geoms/mol2/12ef12ef12ef12ef-.out
 42 45 0 0 0
SMALL
GASTEIGER

@<TRIPOS>ATOM
      1 C           0.4689    1.7105   -0.0001 C.ar    1  LIG1        0.1118
      2 C           1.8280    1.7705   -0.0001 C.ar    1  LIG1        0.1045
      3 C           2.1512    3.1752   -0.0000 C.ar    1  LIG1        0.1815
      4 C           0.9531    3.8394   -0.0000 C.ar    1  LIG1        0.2134
      5 O          -0.0659    2.9328   -0.0000 O.2     1  LIG1       -0.4547
      6 H          -0.2086    0.8747   -0.0001 H       1  LIG1        0.1043
      7 C           2.7551    0.6819   -0.0001 C.1     1  LIG1       -0.0628
      8 C           3.5325   -0.2324   -0.0001 C.1     1  LIG1       -0.1137
      9 H           4.2285   -1.0386   -0.0002 H       1  LIG1        0.1232
     10 O           3.4141    3.6121   -0.0001 O.3     1  LIG1       -0.5023
     11 H           3.4640    4.5804   -0.0000 H       1  LIG1        0.2923
     12 C           0.5805    5.2379    0.0000 C.ar    1  LIG1        0.1934
     13 C           1.3067    6.4045    0.0001 C.ar    1  LIG1        0.1157
     14 C           0.3398    7.4683    0.0000 C.ar    1  LIG1        0.1823
     15 C          -0.8892    6.8669   -0.0001 C.ar    1  LIG1        0.2144
     16 O          -0.7259    5.5117   -0.0001 O.2     1  LIG1       -0.4434
     17 C           2.7225    6.5851    0.0002 C.1     1  LIG1       -0.0621
     18 C           3.9126    6.7685    0.0003 C.1     1  LIG1       -0.1137
     19 H           4.9641    6.9466    0.0006 H       1  LIG1        0.1232
     20 O           0.7090    8.7522    0.0001 O.3     1  LIG1       -0.5023
     21 H          -0.0554    9.3498    0.0000 H       1  LIG1        0.2923
     22 C          -2.2495    7.3540   -0.0002 C.ar    1  LIG1        0.1934
     23 C          -2.7999    8.6155   -0.0002 C.ar    1  LIG1        0.1157
     24 C          -4.2224    8.4123   -0.0003 C.ar    1  LIG1        0.1823
     25 C          -4.4148    7.0642   -0.0003 C.ar    1  LIG1        0.2144
     26 O          -3.2153    6.4274   -0.0002 O.2     1  LIG1       -0.4434
     27 C          -2.1386    9.8804   -0.0002 C.1     1  LIG1       -0.0621
     28 C          -1.6085   10.9618   -0.0003 C.1     1  LIG1       -0.1137
     29 H          -1.1585   11.9289   -0.0005 H       1  LIG1        0.1232
     30 O          -5.1250    9.4053   -0.0004 O.3     1  LIG1       -0.5023
     31 H          -6.0160    9.0300   -0.0004 H       1  LIG1        0.2923
     32 C          -5.6359    6.3023   -0.0003 C.ar    1  LIG1        0.1924
     33 C          -5.9189    4.9684   -0.0003 C.ar    1  LIG1        0.1149
     34 C          -7.3645    4.8861   -0.0004 C.ar    1  LIG1        0.1709
     35 C          -7.8349    6.1515   -0.0005 C.ar    1  LIG1        0.1353
     36 O          -6.7749    7.0221   -0.0005 O.2     1  LIG1       -0.4547
     37 H          -8.8222    6.5718   -0.0006 H       1  LIG1        0.1068
     38 C          -5.0377    3.8470   -0.0001 C.1     1  LIG1       -0.0621
     39 C          -4.3353    2.8714   -0.0000 C.1     1  LIG1       -0.1137
     40 H          -3.6813    2.0306    0.0001 H       1  LIG1        0.1232
     41 O          -8.0804    3.7425   -0.0003 O.3     1  LIG1       -0.5028
     42 H          -7.4699    2.9944   -0.0002 H       1  LIG1        0.2923
@<TRIPOS>BOND
     1    37    35    1
     2    29    28    1
     3    35    36   ar
     4    35    34   ar
     5    36    32   ar
     6    31    30    1
     7    30    24    1
     8    34    41    1
     9    34    33   ar
    10    41    42    1
    11    32    25    1
    12    32    33   ar
    13    24    25   ar
    14    24    23   ar
    15    25    26   ar
    16    28    27    3
    17    33    38    1
    18    27    23    1
    19    23    22   ar
    20     9     8    1
    21    26    22   ar
    22    22    15    1
    23     8     7    3
    24    38    39    3
    25     7     2    1
    26    16    15   ar
    27    16    12   ar
    28     2     1   ar
    29     2     3   ar
    30    10     3    1
    31    10    11    1
    32     6     1    1
    33    15    14   ar
    34     1     5   ar
    35     3     4   ar
    36     5     4   ar
    37    39    40    1
    38     4    12    1
    39    12    13   ar
    40    21    20    1
    41    14    13   ar
    42    14    20    1
    43    13    17    1
    44    17    18    3
    45    18    19    1
