@<TRIPOS>MOLECULE
mol_data/opt/m06hf/geoms/mol2/12ef12ef-12ef-12ef.out
 42 45 0 0 0
SMALL
GASTEIGER

@<TRIPOS>ATOM
      1 C           0.1912    1.6922   -0.0001 C.ar    1  LIG1        0.1118
      2 C           1.5522    1.7660   -0.0007 C.ar    1  LIG1        0.1045
      3 C           1.8553    3.1743   -0.0008 C.ar    1  LIG1        0.1815
      4 C           0.6515    3.8167   -0.0003 C.ar    1  LIG1        0.2134
      5 O          -0.3595    2.9116    0.0001 O.2     1  LIG1       -0.4547
      6 H          -0.4775    0.8496    0.0002 H       1  LIG1        0.1043
      7 C           2.4905    0.6866   -0.0011 C.1     1  LIG1       -0.0628
      8 C           3.2791   -0.2184   -0.0014 C.1     1  LIG1       -0.1137
      9 H           3.9809   -1.0204   -0.0016 H       1  LIG1        0.1232
     10 O           3.0971    3.6743   -0.0014 O.3     1  LIG1       -0.5023
     11 H           3.0937    4.6440   -0.0013 H       1  LIG1        0.2923
     12 C           0.3742    5.2267   -0.0001 C.ar    1  LIG1        0.1934
     13 C          -0.7595    5.9907    0.0004 C.ar    1  LIG1        0.1157
     14 C          -0.3011    7.3586    0.0004 C.ar    1  LIG1        0.1823
     15 C           1.0600    7.3230   -0.0001 C.ar    1  LIG1        0.2144
     16 O           1.4622    6.0139   -0.0004 O.2     1  LIG1       -0.4434
     17 C          -2.1360    5.6161    0.0009 C.1     1  LIG1       -0.0621
     18 C          -3.3157    5.3823    0.0013 C.1     1  LIG1       -0.1137
     19 H          -4.3555    5.1461    0.0017 H       1  LIG1        0.1232
     20 O          -1.0920    8.4416    0.0009 O.3     1  LIG1       -0.5023
     21 H          -2.0150    8.1545    0.0015 H       1  LIG1        0.2923
     22 C           2.1086    8.3153   -0.0003 C.ar    1  LIG1        0.1934
     23 C           2.1157    9.6860   -0.0006 C.ar    1  LIG1        0.1157
     24 C           3.5063   10.0610   -0.0006 C.ar    1  LIG1        0.1823
     25 C           4.2244    8.9055   -0.0002 C.ar    1  LIG1        0.2144
     26 O           3.3661    7.8476   -0.0000 O.2     1  LIG1       -0.4434
     27 C           1.0700   10.6563   -0.0011 C.1     1  LIG1       -0.0621
     28 C           0.2798   11.5629   -0.0015 C.1     1  LIG1       -0.1137
     29 H          -0.4463   12.3431   -0.0018 H       1  LIG1        0.1232
     30 O           3.9722   11.3212   -0.0009 O.3     1  LIG1       -0.5023
     31 H           3.2191   11.9278   -0.0011 H       1  LIG1        0.2923
     32 C           5.6469    8.6516   -0.0000 C.ar    1  LIG1        0.1924
     33 C           6.3945    7.5049    0.0007 C.ar    1  LIG1        0.1149
     34 C           7.7651    7.9580    0.0005 C.ar    1  LIG1        0.1709
     35 C           7.7329    9.3112   -0.0003 C.ar    1  LIG1        0.1353
     36 O           6.4401    9.7318   -0.0006 O.2     1  LIG1       -0.4547
     37 H           8.4936   10.0702   -0.0008 H       1  LIG1        0.1068
     38 C           5.9835    6.1376    0.0014 C.1     1  LIG1       -0.0621
     39 C           5.7134    4.9663    0.0020 C.1     1  LIG1       -0.1137
     40 H           5.4520    3.9314    0.0025 H       1  LIG1        0.1232
     41 O           8.8086    7.0969    0.0010 O.3     1  LIG1       -0.5028
     42 H           9.6428    7.5778    0.0005 H       1  LIG1        0.2923
@<TRIPOS>BOND
     1    29    28    1
     2     9     8    1
     3    28    27    3
     4    10    11    1
     5    10     3    1
     6     8     7    3
     7    31    30    1
     8    27    23    1
     9     7     2    1
    10    30    24    1
    11     3     2   ar
    12     3     4   ar
    13    37    35    1
    14     2     1   ar
    15    23    24   ar
    16    23    22   ar
    17    36    35   ar
    18    36    32   ar
    19    24    25   ar
    20    16    12   ar
    21    16    15   ar
    22    35    34   ar
    23     4    12    1
    24     4     5   ar
    25    22    15    1
    26    22    26   ar
    27    25    26   ar
    28    25    32    1
    29     1     5   ar
    30     1     6    1
    31    12    13   ar
    32    15    14   ar
    33    32    33   ar
    34    13    14   ar
    35    13    17    1
    36    14    20    1
    37    42    41    1
    38    34    33   ar
    39    34    41    1
    40    33    38    1
    41    17    18    3
    42    20    21    1
    43    18    19    1
    44    38    39    3
    45    39    40    1
