@<TRIPOS>MOLECULE
mol_data/opt/m06hf/geoms/mol2/12ef12ef-12ef-12ef-.out
 42 45 0 0 0
SMALL
GASTEIGER

@<TRIPOS>ATOM
      1 C           5.5276   -1.6276   -0.1192 C.ar    1  LIG1        0.1118
      2 C           4.5650   -2.5787    0.0369 C.ar    1  LIG1        0.1045
      3 C           3.3190   -1.8560    0.0820 C.ar    1  LIG1        0.1815
      4 C           3.6493   -0.5365   -0.0507 C.ar    1  LIG1        0.2134
      5 O           4.9942   -0.4017   -0.1729 O.2     1  LIG1       -0.4547
      6 H           6.5976   -1.7030   -0.2034 H       1  LIG1        0.1043
      7 C           4.7434   -3.9946    0.1337 C.1     1  LIG1       -0.0628
      8 C           4.8968   -5.1824    0.2130 C.1     1  LIG1       -0.1137
      9 H           5.0287   -6.2372    0.2860 H       1  LIG1        0.1232
     10 O           2.1209   -2.4350    0.2244 O.3     1  LIG1       -0.5023
     11 H           1.4165   -1.7714    0.2196 H       1  LIG1        0.2923
     12 C           2.7902    0.6149   -0.0833 C.ar    1  LIG1        0.1934
     13 C           2.9697    1.9602   -0.2511 C.ar    1  LIG1        0.1157
     14 C           1.6466    2.5347   -0.1962 C.ar    1  LIG1        0.1823
     15 C           0.7757    1.5098    0.0077 C.ar    1  LIG1        0.2144
     16 O           1.4852    0.3400    0.0762 O.2     1  LIG1       -0.4434
     17 C           4.1561    2.7225   -0.4640 C.1     1  LIG1       -0.0621
     18 C           5.1071    3.4346   -0.6474 C.1     1  LIG1       -0.1137
     19 H           5.9667    4.0430   -0.8100 H       1  LIG1        0.1232
     20 O           1.3530    3.8349   -0.3404 O.3     1  LIG1       -0.5023
     21 H           2.1694    4.3298   -0.4909 H       1  LIG1        0.2923
     22 C          -0.6573    1.3934    0.1388 C.ar    1  LIG1        0.1934
     23 C          -1.6686    2.2948    0.3419 C.ar    1  LIG1        0.1157
     24 C          -2.8771    1.5103    0.3768 C.ar    1  LIG1        0.1823
     25 C          -2.5106    0.2143    0.1886 C.ar    1  LIG1        0.2144
     26 O          -1.1548    0.1528    0.0442 O.2     1  LIG1       -0.4434
     27 C          -1.6556    3.7047    0.5592 C.1     1  LIG1       -0.0621
     28 C          -1.7497    4.8858    0.7634 C.1     1  LIG1       -0.1137
     29 H          -1.8025    5.9348    0.9431 H       1  LIG1        0.1232
     30 O          -4.1143    1.9865    0.5915 O.3     1  LIG1       -0.5023
     31 H          -4.0597    2.9386    0.7497 H       1  LIG1        0.2923
     32 C          -3.2512   -1.0283    0.1430 C.ar    1  LIG1        0.1924
     33 C          -4.5451   -1.3172   -0.1917 C.ar    1  LIG1        0.1149
     34 C          -4.6760   -2.7435   -0.0061 C.ar    1  LIG1        0.1709
     35 C          -3.4701   -3.1947    0.4058 C.ar    1  LIG1        0.1353
     36 O          -2.6065   -2.1467    0.5012 O.2     1  LIG1       -0.4547
     37 H          -3.0955   -4.1695    0.6526 H       1  LIG1        0.1068
     38 C          -5.5912   -0.4814   -0.6851 C.1     1  LIG1       -0.0621
     39 C          -6.5205    0.1493   -1.1142 C.1     1  LIG1       -0.1137
     40 H          -7.3282    0.7313   -1.4928 H       1  LIG1        0.1232
     41 O          -5.7973   -3.4669   -0.2206 O.3     1  LIG1       -0.5028
     42 H          -6.4946   -2.8746   -0.5299 H       1  LIG1        0.2923
@<TRIPOS>BOND
     1    40    39    1
     2    39    38    3
     3    19    18    1
     4    38    33    1
     5    18    17    3
     6    42    41    1
     7    21    20    1
     8    17    13    1
     9    20    14    1
    10    13    14   ar
    11    13    12   ar
    12    41    34    1
    13     6     1    1
    14    14    15   ar
    15    33    34   ar
    16    33    32   ar
    17     5     1   ar
    18     5     4   ar
    19     1     2   ar
    20    12     4    1
    21    12    16   ar
    22     4     3   ar
    23    34    35   ar
    24    15    16   ar
    25    15    22    1
    26     2     3   ar
    27     2     7    1
    28    26    22   ar
    29    26    25   ar
    30     3    10    1
    31     7     8    3
    32    22    23   ar
    33    32    25    1
    34    32    36   ar
    35    25    24   ar
    36     8     9    1
    37    11    10    1
    38    23    24   ar
    39    23    27    1
    40    24    30    1
    41    35    36   ar
    42    35    37    1
    43    27    28    3
    44    30    31    1
    45    28    29    1
