@<TRIPOS>MOLECULE
mol_data/opt/m06hf/geoms/mol2/12ef12ef12ef.out
 32 34 0 0 0
SMALL
GASTEIGER

@<TRIPOS>ATOM
      1 C           0.2592    1.7147    0.0001 C.ar    1  LIG1        0.1118
      2 C           1.6196    1.7409    0.0000 C.ar    1  LIG1        0.1045
      3 C           1.9782    3.1375    0.0000 C.ar    1  LIG1        0.1815
      4 C           0.7968    3.8300    0.0000 C.ar    1  LIG1        0.2134
      5 O          -0.2435    2.9497    0.0000 O.2     1  LIG1       -0.4547
      6 H          -0.4405    0.8976    0.0001 H       1  LIG1        0.1043
      7 C           2.5191    0.6291    0.0001 C.1     1  LIG1       -0.0628
      8 C           3.2732   -0.3046    0.0001 C.1     1  LIG1       -0.1137
      9 H           3.9476   -1.1294   -0.0001 H       1  LIG1        0.1232
     10 O           3.2515    3.5459   -0.0000 O.3     1  LIG1       -0.5023
     11 H           3.3221    4.5128   -0.0000 H       1  LIG1        0.2923
     12 C           0.4539    5.2361   -0.0000 C.ar    1  LIG1        0.1934
     13 C           1.2003    6.3883   -0.0000 C.ar    1  LIG1        0.1157
     14 C           0.2512    7.4696   -0.0001 C.ar    1  LIG1        0.1823
     15 C          -0.9865    6.8912   -0.0001 C.ar    1  LIG1        0.2144
     16 O          -0.8480    5.5336   -0.0001 O.2     1  LIG1       -0.4434
     17 C           2.6197    6.5418    0.0001 C.1     1  LIG1       -0.0621
     18 C           3.8128    6.7055    0.0001 C.1     1  LIG1       -0.1137
     19 H           4.8657    6.8735    0.0002 H       1  LIG1        0.1232
     20 O           0.6442    8.7480   -0.0001 O.3     1  LIG1       -0.5023
     21 H          -0.1098    9.3586   -0.0001 H       1  LIG1        0.2923
     22 C          -2.3404    7.4046   -0.0002 C.ar    1  LIG1        0.1924
     23 C          -2.8638    8.6724   -0.0002 C.ar    1  LIG1        0.1149
     24 C          -4.2947    8.4932   -0.0003 C.ar    1  LIG1        0.1709
     25 C          -4.5186    7.1589   -0.0003 C.ar    1  LIG1        0.1353
     26 O          -3.3264    6.5016   -0.0003 O.2     1  LIG1       -0.4547
     27 H          -5.4089    6.5574   -0.0004 H       1  LIG1        0.1068
     28 C          -2.1819    9.9261   -0.0001 C.1     1  LIG1       -0.0621
     29 C          -1.6344   10.9989   -0.0001 C.1     1  LIG1       -0.1137
     30 H          -1.1700   11.9583   -0.0000 H       1  LIG1        0.1232
     31 O          -5.1474    9.5422   -0.0003 O.3     1  LIG1       -0.5028
     32 H          -6.0620    9.2412   -0.0004 H       1  LIG1        0.2923
@<TRIPOS>BOND
     1    27    25    1
     2    32    31    1
     3    31    24    1
     4    25    24   ar
     5    25    26   ar
     6    24    23   ar
     7    26    22   ar
     8    23    22   ar
     9    23    28    1
    10    22    15    1
    11    28    29    3
    12     9     8    1
    13    15    16   ar
    14    15    14   ar
    15    21    20    1
    16    16    12   ar
    17    29    30    1
    18    20    14    1
    19    14    13   ar
    20    10    11    1
    21    10     3    1
    22    12    13   ar
    23    12     4    1
    24    13    17    1
    25     3     4   ar
    26     3     2   ar
    27     4     5   ar
    28     2     7    1
    29     2     1   ar
    30     5     1   ar
    31     8     7    3
    32     1     6    1
    33    17    18    3
    34    18    19    1
