@<TRIPOS>MOLECULE
mol_data/opt/m06hf/geoms/mol2/12ef12ef12ef-12ef.out
 42 45 0 0 0
SMALL
GASTEIGER

@<TRIPOS>ATOM
      1 C           0.4381    1.6804    0.0001 C.ar    1  LIG1        0.1118
      2 C           1.7952    1.7785   -0.0001 C.ar    1  LIG1        0.1045
      3 C           2.0798    3.1919   -0.0001 C.ar    1  LIG1        0.1815
      4 C           0.8636    3.8222    0.0000 C.ar    1  LIG1        0.2134
      5 O          -0.1286    2.8877    0.0001 O.2     1  LIG1       -0.4547
      6 H          -0.2178    0.8275    0.0001 H       1  LIG1        0.1043
      7 C           2.7556    0.7191   -0.0002 C.1     1  LIG1       -0.0628
      8 C           3.5644   -0.1678   -0.0003 C.1     1  LIG1       -0.1137
      9 H           4.2893   -0.9487   -0.0003 H       1  LIG1        0.1232
     10 O           3.3310    3.6621   -0.0002 O.3     1  LIG1       -0.5023
     11 H           3.3558    4.6315   -0.0002 H       1  LIG1        0.2923
     12 C           0.4451    5.2071    0.0000 C.ar    1  LIG1        0.1934
     13 C           1.1321    6.3991    0.0000 C.ar    1  LIG1        0.1157
     14 C           0.1270    7.4268    0.0000 C.ar    1  LIG1        0.1823
     15 C          -1.0740    6.7768    0.0001 C.ar    1  LIG1        0.2144
     16 O          -0.8745    5.4321    0.0001 O.2     1  LIG1       -0.4434
     17 C           2.5420    6.6215   -0.0000 C.1     1  LIG1       -0.0621
     18 C           3.7255    6.8426   -0.0001 C.1     1  LIG1       -0.1137
     19 H           4.7699    7.0567   -0.0001 H       1  LIG1        0.1232
     20 O           0.4055    8.7337   -0.0000 O.3     1  LIG1       -0.5023
     21 H          -0.4003    9.2762   -0.0000 H       1  LIG1        0.2923
     22 C          -2.4012    7.3232    0.0000 C.ar    1  LIG1        0.1934
     23 C          -3.6692    6.8110   -0.0000 C.ar    1  LIG1        0.1157
     24 C          -4.5475    7.9577   -0.0002 C.ar    1  LIG1        0.1823
     25 C          -3.7549    9.0624   -0.0002 C.ar    1  LIG1        0.2144
     26 O          -2.4465    8.6667   -0.0001 O.2     1  LIG1       -0.4434
     27 C          -4.1346    5.4623    0.0000 C.1     1  LIG1       -0.0621
     28 C          -4.6115    4.3585    0.0001 C.1     1  LIG1       -0.1137
     29 H          -5.0117    3.3705    0.0001 H       1  LIG1        0.1232
     30 O          -5.8890    7.9157   -0.0002 O.3     1  LIG1       -0.5023
     31 H          -6.1733    6.9918   -0.0001 H       1  LIG1        0.2923
     32 C          -4.0024   10.4830   -0.0003 C.ar    1  LIG1        0.1924
     33 C          -3.1437   11.5492   -0.0001 C.ar    1  LIG1        0.1149
     34 C          -3.9988   12.7117   -0.0005 C.ar    1  LIG1        0.1709
     35 C          -5.2743   12.2593   -0.0010 C.ar    1  LIG1        0.1353
     36 O          -5.2731   10.8979   -0.0008 O.2     1  LIG1       -0.4547
     37 H          -6.2319   12.7462   -0.0014 H       1  LIG1        0.1068
     38 C          -1.7140   11.5565    0.0004 C.1     1  LIG1       -0.0621
     39 C          -0.5126   11.6247    0.0008 C.1     1  LIG1       -0.1137
     40 H           0.5520   11.6917    0.0011 H       1  LIG1        0.1232
     41 O          -3.5030   13.9699   -0.0005 O.3     1  LIG1       -0.5028
     42 H          -4.2167   14.6166   -0.0009 H       1  LIG1        0.2923
@<TRIPOS>BOND
     1    37    35    1
     2    35    36   ar
     3    35    34   ar
     4    42    41    1
     5    36    32   ar
     6    34    41    1
     7    34    33   ar
     8     9     8    1
     9    32    25    1
    10    32    33   ar
    11     8     7    3
    12    30    24    1
    13    30    31    1
    14    10    11    1
    15    10     3    1
    16     7     2    1
    17    25    24   ar
    18    25    26   ar
    19    24    23   ar
    20     3     2   ar
    21     3     4   ar
    22    33    38    1
    23     2     1   ar
    24    19    18    1
    25    26    22   ar
    26    18    17    3
    27    21    20    1
    28    20    14    1
    29    23    22   ar
    30    23    27    1
    31    17    13    1
    32    13    14   ar
    33    13    12   ar
    34     4    12    1
    35     4     5   ar
    36    14    15   ar
    37    22    15    1
    38    27    28    3
    39    12    16   ar
    40     1     5   ar
    41     1     6    1
    42    15    16   ar
    43    28    29    1
    44    38    39    3
    45    39    40    1
