@<TRIPOS>MOLECULE
mol_data/opt/m06hf/geoms/mol2/12ef12ef-12ef12ef.out
 42 45 0 0 0
SMALL
GASTEIGER

@<TRIPOS>ATOM
      1 C           0.3308    1.6817   -0.0001 C.ar    1  LIG1        0.1118
      2 C           1.6869    1.8112   -0.0001 C.ar    1  LIG1        0.1045
      3 C           1.9348    3.2315   -0.0001 C.ar    1  LIG1        0.1815
      4 C           0.7032    3.8226   -0.0000 C.ar    1  LIG1        0.2134
      5 O          -0.2702    2.8767    0.0000 O.2     1  LIG1       -0.4547
      6 H          -0.3041    0.8136   -0.0000 H       1  LIG1        0.1043
      7 C           2.6663    0.7681   -0.0002 C.1     1  LIG1       -0.0628
      8 C           3.4882   -0.1072   -0.0003 C.1     1  LIG1       -0.1137
      9 H           4.2236   -0.8787   -0.0003 H       1  LIG1        0.1232
     10 O           3.1546    3.7794   -0.0002 O.3     1  LIG1       -0.5023
     11 H           3.1136    4.7498   -0.0002 H       1  LIG1        0.2923
     12 C           0.3676    5.2193    0.0000 C.ar    1  LIG1        0.1934
     13 C          -0.7929    5.9437    0.0001 C.ar    1  LIG1        0.1157
     14 C          -0.3822    7.3278    0.0001 C.ar    1  LIG1        0.1823
     15 C           0.9788    7.3362    0.0000 C.ar    1  LIG1        0.2144
     16 O           1.4270    6.0446   -0.0000 O.2     1  LIG1       -0.4434
     17 C          -2.1540    5.5177    0.0001 C.1     1  LIG1       -0.0621
     18 C          -3.3231    5.2383    0.0001 C.1     1  LIG1       -0.1137
     19 H          -4.3533    4.9664    0.0003 H       1  LIG1        0.1232
     20 O          -1.2007    8.3891    0.0001 O.3     1  LIG1       -0.5023
     21 H          -2.1174    8.0832    0.0001 H       1  LIG1        0.2923
     22 C           1.9774    8.3730   -0.0000 C.ar    1  LIG1        0.1934
     23 C           3.3472    8.3085    0.0001 C.ar    1  LIG1        0.1157
     24 C           3.7912    9.6776   -0.0000 C.ar    1  LIG1        0.1823
     25 C           2.6615   10.4497   -0.0001 C.ar    1  LIG1        0.2144
     26 O           1.5615    9.6408   -0.0001 O.2     1  LIG1       -0.4434
     27 C           4.1932    7.1572    0.0002 C.1     1  LIG1       -0.0621
     28 C           4.9463    6.2192    0.0003 C.1     1  LIG1       -0.1137
     29 H           5.6129    5.3864    0.0003 H       1  LIG1        0.1232
     30 O           5.0895    9.9995    0.0000 O.3     1  LIG1       -0.5023
     31 H           5.2240   10.9600   -0.0000 H       1  LIG1        0.2923
     32 C           2.4113   11.8761   -0.0003 C.ar    1  LIG1        0.1924
     33 C           3.2305   12.9775   -0.0002 C.ar    1  LIG1        0.1149
     34 C           2.3410   14.1127   -0.0005 C.ar    1  LIG1        0.1709
     35 C           1.0819   13.6187   -0.0008 C.ar    1  LIG1        0.1353
     36 O           1.1304   12.2592   -0.0006 O.2     1  LIG1       -0.4547
     37 H           0.1076   14.0724   -0.0010 H       1  LIG1        0.1068
     38 C           4.6570   13.0349    0.0002 C.1     1  LIG1       -0.0621
     39 C           5.8594   13.1125    0.0005 C.1     1  LIG1       -0.1137
     40 H           6.9221   13.2038    0.0007 H       1  LIG1        0.1232
     41 O           2.7973   15.3859   -0.0005 O.3     1  LIG1       -0.5028
     42 H           2.0616   16.0070   -0.0008 H       1  LIG1        0.2923
@<TRIPOS>BOND
     1    37    35    1
     2    42    41    1
     3    35    36   ar
     4    35    34   ar
     5    36    32   ar
     6    41    34    1
     7    34    33   ar
     8     9     8    1
     9     8     7    3
    10    32    33   ar
    11    32    25    1
    12     7     2    1
    13    33    38    1
    14    10    11    1
    15    10     3    1
    16     2     3   ar
    17     2     1   ar
    18    25    26   ar
    19    25    24   ar
    20    26    22   ar
    21     3     4   ar
    22     1     6    1
    23     1     5   ar
    24     4    12    1
    25     4     5   ar
    26    16    15   ar
    27    16    12   ar
    28    24    30    1
    29    24    23   ar
    30    22    15    1
    31    22    23   ar
    32    31    30    1
    33    15    14   ar
    34    12    13   ar
    35    14    13   ar
    36    14    20    1
    37    13    17    1
    38    23    27    1
    39    20    21    1
    40    17    18    3
    41    18    19    1
    42    38    39    3
    43    27    28    3
    44    28    29    1
    45    39    40    1
