@<TRIPOS>MOLECULE
mol_data/opt/m06hf/geoms/mol2/12ef12ef-.out
 22 23 0 0 0
SMALL
GASTEIGER

@<TRIPOS>ATOM
      1 C           0.2375    1.7441    0.0000 C.ar    1  LIG1        0.1118
      2 C           1.5995    1.7881    0.0000 C.ar    1  LIG1        0.1045
      3 C           1.9320    3.1897   -0.0000 C.ar    1  LIG1        0.1815
      4 C           0.7437    3.8591   -0.0000 C.ar    1  LIG1        0.2134
      5 O          -0.2860    2.9755   -0.0000 O.2     1  LIG1       -0.4547
      6 H          -0.4500    0.9172    0.0000 H       1  LIG1        0.1043
      7 C           2.5103    0.6852    0.0001 C.1     1  LIG1       -0.0628
      8 C           3.2743   -0.2406    0.0001 C.1     1  LIG1       -0.1137
      9 H           3.9581   -1.0577    0.0003 H       1  LIG1        0.1232
     10 O           3.1841    3.6733   -0.0000 O.3     1  LIG1       -0.5023
     11 H           3.1551    4.6393   -0.0001 H       1  LIG1        0.2923
     12 C           0.4891    5.2782   -0.0001 C.ar    1  LIG1        0.1923
     13 C          -0.6343    6.0522   -0.0001 C.ar    1  LIG1        0.1149
     14 C          -0.1565    7.4198   -0.0001 C.ar    1  LIG1        0.1709
     15 C           1.1918    7.3704   -0.0002 C.ar    1  LIG1        0.1353
     16 O           1.5878    6.0579   -0.0001 O.2     1  LIG1       -0.4547
     17 H           1.9583    8.1216   -0.0002 H       1  LIG1        0.1068
     18 C          -2.0157    5.6934   -0.0000 C.1     1  LIG1       -0.0621
     19 C          -3.2001    5.4850   -0.0000 C.1     1  LIG1       -0.1137
     20 H          -4.2456    5.2773   -0.0000 H       1  LIG1        0.1232
     21 O          -0.9378    8.5195   -0.0002 O.3     1  LIG1       -0.5028
     22 H          -1.8640    8.2453   -0.0001 H       1  LIG1        0.2923
@<TRIPOS>BOND
     1    17    15    1
     2    21    14    1
     3    21    22    1
     4    15    14   ar
     5    15    16   ar
     6    14    13   ar
     7    16    12   ar
     8    13    12   ar
     9    13    18    1
    10    12     4    1
    11    11    10    1
    12    18    19    3
    13     4     3   ar
    14     4     5   ar
    15    10     3    1
    16    20    19    1
    17     3     2   ar
    18     5     1   ar
    19     1     2   ar
    20     1     6    1
    21     2     7    1
    22     7     8    3
    23     8     9    1
