@<TRIPOS>MOLECULE
mol_data/opt/m06hf/geoms/mol2/12ef13al-4if6ff.out
 49 52 0 0 0
SMALL
GASTEIGER

@<TRIPOS>ATOM
      1 C           0.4565    1.6484    0.5616 C.ar    1  LIG1        0.1117
      2 C           1.7561    1.8329    0.9204 C.ar    1  LIG1        0.1045
      3 C           2.0168    3.2320    0.6852 C.ar    1  LIG1        0.1798
      4 C           0.8679    3.7628    0.1945 C.ar    1  LIG1        0.1934
      5 O          -0.0896    2.7957    0.1285 O.2     1  LIG1       -0.4564
      6 H          -0.1701    0.7746    0.5680 H       1  LIG1        0.1043
      7 C           2.6686    0.8587    1.4351 C.1     1  LIG1       -0.0628
      8 C           3.4371    0.0454    1.8695 C.1     1  LIG1       -0.1137
      9 H           4.1228   -0.6722    2.2561 H       1  LIG1        0.1232
     10 O           3.1896    3.8485    0.9444 O.3     1  LIG1       -0.5024
     11 H           3.0446    4.8040    0.9747 H       1  LIG1        0.2923
     12 C           0.5576    5.1266   -0.1985 C.ar    1  LIG1        0.0898
     13 C           1.3901    6.0861   -0.7509 C.ar    1  LIG1        0.0092
     14 C           0.6133    7.2745   -0.8544 C.ar    1  LIG1        0.1459
     15 C          -0.6552    7.0072   -0.3751 C.ar    1  LIG1        0.0896
     16 N          -0.6578    5.6895    0.0133 N.ar    1  LIG1       -0.3487
     17 H          -1.4270    5.2350    0.4820 H       1  LIG1        0.1661
     18 H           2.3946    5.9125   -1.1012 H       1  LIG1        0.0677
     19 O           0.9730    8.4769   -1.3697 O.3     1  LIG1       -0.4930
     20 C           2.2403    8.5153   -2.0012 C.3     1  LIG1        0.0789
     21 H           2.3525    9.5216   -2.3958 H       1  LIG1        0.0660
     22 H           3.0354    8.3109   -1.2797 H       1  LIG1        0.0660
     23 H           2.2814    7.7888   -2.8161 H       1  LIG1        0.0660
     24 C          -1.8939    9.0882    0.3082 C.ar    1  LIG1       -0.0404
     25 C          -3.1025    9.7812    0.3448 C.ar    1  LIG1       -0.0468
     26 C          -1.8794    7.8308   -0.3118 C.ar    1  LIG1        0.0083
     27 C          -4.2906    9.2772   -0.1895 C.ar    1  LIG1        0.0290
     28 H          -3.1324   10.7609    0.8076 H       1  LIG1        0.0628
     29 C          -3.0517    7.3088   -0.8647 C.ar    1  LIG1       -0.0101
     30 C          -4.2390    8.0233   -0.8017 C.ar    1  LIG1        0.1253
     31 H          -3.0217    6.3494   -1.3711 H       1  LIG1        0.0661
     32 C          -0.6478    9.6762    0.9407 C.3     1  LIG1       -0.0391
     33 H          -0.9083   10.5530    1.5324 H       1  LIG1        0.0278
     34 H           0.0708    9.9547    0.1698 H       1  LIG1        0.0278
     35 H          -0.1744    8.9362    1.5887 H       1  LIG1        0.0278
     36 O          -5.4012    7.5302   -1.3447 O.3     1  LIG1       -0.5061
     37 H          -5.2662    6.6508   -1.7144 H       1  LIG1        0.2922
     38 C          -6.4074   10.3575   -1.1360 C.ar    1  LIG1        0.2205
     39 C          -5.5540   10.0586   -0.0482 C.ar    1  LIG1        0.0504
     40 C          -5.8871   10.5842    1.1933 C.ar    1  LIG1       -0.0058
     41 C          -7.0111   11.3943    1.3215 C.ar    1  LIG1        0.1357
     42 C          -7.7608   11.6496    0.1816 C.ar    1  LIG1        0.0728
     43 N          -7.4648   11.1341   -1.0088 N.ar    1  LIG1       -0.2173
     44 H          -5.2858   10.3704    2.0682 H       1  LIG1        0.0662
     45 H          -8.6390   12.2871    0.2301 H       1  LIG1        0.0868
     46 O          -6.1546    9.9000   -2.3820 O.3     1  LIG1       -0.4920
     47 H          -5.8880    8.9691   -2.3262 H       1  LIG1        0.2937
     48 O          -7.3158   11.8948    2.5525 O.3     1  LIG1       -0.5052
     49 H          -8.1280   12.4112    2.5136 H       1  LIG1        0.2922
@<TRIPOS>BOND
     1    23    20    1
     2    21    20    1
     3    46    47    1
     4    46    38    1
     5    20    19    1
     6    20    22    1
     7    37    36    1
     8    31    29    1
     9    19    14    1
    10    36    30    1
    11    38    43   ar
    12    38    39   ar
    13    18    13    1
    14    43    42   ar
    15    29    30   ar
    16    29    26   ar
    17    14    13   ar
    18    14    15   ar
    19    30    27   ar
    20    13    12   ar
    21    15    26    1
    22    15    16   ar
    23    26    24   ar
    24    12    16   ar
    25    12     4    1
    26    27    39    1
    27    27    25   ar
    28    39    40   ar
    29    16    17    1
    30     5     4   ar
    31     5     1   ar
    32    34    32    1
    33    42    45    1
    34    42    41   ar
    35     4     3   ar
    36    24    25   ar
    37    24    32    1
    38    25    28    1
    39     1     6    1
    40     1     2   ar
    41     3     2   ar
    42     3    10    1
    43     2     7    1
    44    32    33    1
    45    32    35    1
    46    10    11    1
    47    40    41   ar
    48    40    44    1
    49    41    48    1
    50     7     8    3
    51     8     9    1
    52    49    48    1
