@<TRIPOS>MOLECULE
mol_data/opt/m06hf/geoms/mol2/12ef6lh-13fl-4af-13ah-12hi-6ah-12lf.out
 96 103 0 0 0
SMALL
GASTEIGER

@<TRIPOS>ATOM
      1 C           0.6038    1.5025   -0.3828 C.ar    1  LIG1        0.1116
      2 C           1.7444    1.6750   -1.1070 C.ar    1  LIG1        0.1044
      3 C           1.9125    3.1024   -1.1952 C.ar    1  LIG1        0.1785
      4 C           0.8756    3.6647   -0.5176 C.ar    1  LIG1        0.1824
      5 O           0.0761    2.6800   -0.0321 O.2     1  LIG1       -0.4577
      6 H           0.0825    0.6161   -0.0676 H       1  LIG1        0.1043
      7 C           2.5919    0.6679   -1.6676 C.1     1  LIG1       -0.0628
      8 C           3.3069   -0.1748   -2.1368 C.1     1  LIG1       -0.1137
      9 H           3.9469   -0.9177   -2.5526 H       1  LIG1        0.1232
     10 O           2.9365    3.7150   -1.8425 O.3     1  LIG1       -0.5024
     11 H           2.6333    4.5615   -2.1935 H       1  LIG1        0.2923
     12 C          -0.7031    5.6359   -0.3591 C.ar    1  LIG1        0.2262
     13 C           0.5895    5.0755   -0.2471 C.ar    1  LIG1        0.0841
     14 C           1.6144    5.9554    0.0713 C.ar    1  LIG1       -0.0230
     15 C           1.3590    7.3069    0.2959 C.ar    1  LIG1        0.0534
     16 C           0.0309    7.7421    0.2423 C.ar    1  LIG1        0.1152
     17 N          -0.9583    6.9007   -0.1186 N.ar    1  LIG1       -0.2088
     18 H           2.6289    5.5753    0.1444 H       1  LIG1        0.0645
     19 O          -1.6975    4.8211   -0.7266 O.3     1  LIG1       -0.4792
     20 C          -2.9997    5.3871   -0.8279 C.3     1  LIG1        0.0804
     21 H          -3.6483    4.5620   -1.1059 H       1  LIG1        0.0660
     22 H          -3.3007    5.8126    0.1293 H       1  LIG1        0.0660
     23 H          -3.0145    6.1634   -1.5940 H       1  LIG1        0.0660
     24 N           2.4093    8.2457    0.5595 N.pl3   1  LIG1       -0.3563
     25 H           3.2659    7.7795    0.8425 H       1  LIG1        0.1424
     26 H           2.6016    8.8125   -0.2665 H       1  LIG1        0.1424
     27 C          -0.3949    9.1096    0.5175 C.ar    1  LIG1        0.1131
     28 C           0.1750   10.2065    1.1643 C.ar    1  LIG1        0.1866
     29 C          -0.7742   11.2567    1.1014 C.ar    1  LIG1        0.1873
     30 C          -1.9098   10.7748    0.4676 C.ar    1  LIG1        0.0931
     31 N          -1.6572    9.4874    0.1236 N.ar    1  LIG1       -0.3470
     32 H          -2.2472    8.8693   -0.4119 H       1  LIG1        0.1662
     33 O           1.3487   10.3148    1.8148 O.3     1  LIG1       -0.5019
     34 H           1.8885    9.5179    1.5763 H       1  LIG1        0.2924
     35 O          -0.6079   12.5094    1.6107 O.3     1  LIG1       -0.4895
     36 C          -0.6486   12.5396    3.0379 C.3     1  LIG1        0.0791
     37 H          -0.4769   13.5736    3.3282 H       1  LIG1        0.0660
     38 H          -1.6297   12.2084    3.3854 H       1  LIG1        0.0660
     39 H           0.1337   11.8972    3.4432 H       1  LIG1        0.0660
     40 C          -3.2633   12.8367    0.1219 C.ar    1  LIG1       -0.0517
     41 C          -4.4831   13.4480   -0.1212 C.ar    1  LIG1       -0.0485
     42 C          -3.1928   11.4429    0.2089 C.ar    1  LIG1        0.0055
     43 C          -5.6679   12.7221   -0.2932 C.ar    1  LIG1        0.0398
     44 H          -4.5262   14.5267   -0.1810 H       1  LIG1        0.0625
     45 C          -4.3639   10.6979    0.0623 C.ar    1  LIG1       -0.0103
     46 C          -5.5775   11.3255   -0.1891 C.ar    1  LIG1        0.1266
     47 H          -4.3456    9.6191    0.1808 H       1  LIG1        0.0661
     48 H          -2.3634   13.4212    0.2514 H       1  LIG1        0.0624
     49 O          -6.7235   10.5865   -0.3280 O.3     1  LIG1       -0.5061
     50 H          -6.5445    9.6485   -0.2097 H       1  LIG1        0.2922
     51 C          -6.9306   13.4321   -0.5598 C.ar    1  LIG1        0.0523
     52 C          -7.1496   14.7911   -0.7531 C.ar    1  LIG1       -0.0149
     53 C          -8.5355   14.9826   -0.9661 C.ar    1  LIG1        0.0539
     54 C          -9.1241   13.7233   -0.9011 C.ar    1  LIG1        0.1053
     55 N          -8.1312   12.8113   -0.6504 N.ar    1  LIG1       -0.3501
     56 H          -8.2629   11.8148   -0.5562 H       1  LIG1        0.1661
     57 H          -6.4104   15.5742   -0.7372 H       1  LIG1        0.0657
     58 N          -9.1808   16.2094   -1.1335 N.pl3   1  LIG1       -0.3562
     59 H          -8.6044   16.8927   -1.6053 H       1  LIG1        0.1424
     60 H         -10.0999   16.1092   -1.5596 H       1  LIG1        0.1424
     61 C         -10.4922   13.2605   -1.0227 C.ar    1  LIG1        0.1743
     62 C         -11.6848   13.8094   -1.4030 C.ar    1  LIG1        0.0761
     63 C         -12.6768   12.7650   -1.2997 C.ar    1  LIG1        0.0167
     64 C         -12.0042   11.6592   -0.8815 C.ar    1  LIG1        0.1420
     65 O         -10.6891   11.9605   -0.7035 O.2     1  LIG1       -0.4511
     66 N         -11.8896   15.1582   -1.8194 N.pl3   1  LIG1       -0.3548
     67 H         -12.3241   15.1964   -2.7370 H       1  LIG1        0.1424
     68 H         -12.4810   15.6605   -1.1623 H       1  LIG1        0.1424
     69 C         -14.1504   12.9343   -1.5637 C.3     1  LIG1       -0.0343
     70 H         -14.7261   12.2004   -1.0000 H       1  LIG1        0.0279
     71 H         -14.3786   12.8214   -2.6260 H       1  LIG1        0.0279
     72 H         -14.4650   13.9320   -1.2539 H       1  LIG1        0.0279
     73 C         -11.7282    9.5704    0.4354 C.ar    1  LIG1        0.0392
     74 C         -12.4078   10.2875   -0.5600 C.ar    1  LIG1        0.0375
     75 C         -13.4610    9.6605   -1.2116 C.ar    1  LIG1       -0.0267
     76 C         -13.8319    8.3550   -0.8669 C.ar    1  LIG1        0.0547
     77 C         -13.0785    7.7276    0.1489 C.ar    1  LIG1        0.1303
     78 N         -12.0649    8.3379    0.7676 N.ar    1  LIG1       -0.2492
     79 H         -13.9887   10.1672   -2.0109 H       1  LIG1        0.0644
     80 H         -10.9025   10.0230    0.9687 H       1  LIG1        0.0837
     81 N         -14.8985    7.7503   -1.4976 N.pl3   1  LIG1       -0.3562
     82 H         -15.1257    8.0883   -2.4190 H       1  LIG1        0.1424
     83 H         -15.0273    6.7623   -1.3464 H       1  LIG1        0.1424
     84 C         -13.3190    6.3443    0.5887 C.ar    1  LIG1        0.1999
     85 C         -12.5122    5.4627    1.2452 C.ar    1  LIG1        0.2092
     86 C         -13.3041    4.2754    1.4572 C.ar    1  LIG1        0.1979
     87 C         -14.5120    4.5123    0.8963 C.ar    1  LIG1        0.1378
     88 O         -14.5269    5.7646    0.3652 O.2     1  LIG1       -0.4538
     89 H         -15.4119    3.9319    0.8021 H       1  LIG1        0.1069
     90 O         -11.2205    5.5970    1.6191 O.3     1  LIG1       -0.4884
     91 C         -11.0641    6.1592    2.9246 C.3     1  LIG1        0.0791
     92 H          -9.9945    6.1733    3.1192 H       1  LIG1        0.0660
     93 H         -11.4666    7.1716    2.9276 H       1  LIG1        0.0660
     94 H         -11.5699    5.5307    3.6606 H       1  LIG1        0.0660
     95 O         -12.8199    3.1917    2.1123 O.3     1  LIG1       -0.5012
     96 H         -13.4787    2.4902    2.1366 H       1  LIG1        0.2924
@<TRIPOS>BOND
     1    67    66    1
     2    71    69    1
     3     9     8    1
     4    82    81    1
     5    11    10    1
     6     8     7    3
     7    79    75    1
     8    10     3    1
     9    66    62    1
    10    66    68    1
    11     7     2    1
    12    59    58    1
    13    23    20    1
    14    69    63    1
    15    69    72    1
    16    69    70    1
    17    60    58    1
    18    81    83    1
    19    81    76    1
    20    62    63   ar
    21    62    61   ar
    22    63    64   ar
    23    75    76   ar
    24    75    74   ar
    25     3     2   ar
    26     3     4   ar
    27    58    53    1
    28     2     1   ar
    29    21    20    1
    30    61    54    1
    31    61    65   ar
    32    53    54   ar
    33    53    52   ar
    34    54    55   ar
    35    64    65   ar
    36    64    74    1
    37    76    77   ar
    38    20    19    1
    39    20    22    1
    40    52    57    1
    41    52    51   ar
    42    19    12    1
    43    55    51   ar
    44    55    56    1
    45    74    73   ar
    46    51    43    1
    47     4    13    1
    48     4     5   ar
    49    32    31    1
    50     1     6    1
    51     1     5   ar
    52    12    13   ar
    53    12    17   ar
    54    49    50    1
    55    49    46    1
    56    43    46   ar
    57    43    41   ar
    58    26    24    1
    59    13    14   ar
    60    46    45   ar
    61    44    41    1
    62    41    40   ar
    63    17    16   ar
    64    45    47    1
    65    45    42   ar
    66    14    18    1
    67    14    15   ar
    68    40    42   ar
    69    40    48    1
    70    31    30   ar
    71    31    27   ar
    72    77    84    1
    73    77    78   ar
    74    42    30    1
    75    16    15   ar
    76    16    27    1
    77    15    24    1
    78    88    84   ar
    79    88    87   ar
    80    73    78   ar
    81    73    80    1
    82    30    29   ar
    83    27    28   ar
    84    24    25    1
    85    84    85   ar
    86    89    87    1
    87    87    86   ar
    88    29    28   ar
    89    29    35    1
    90    28    33    1
    91    85    86   ar
    92    85    90    1
    93    86    95    1
    94    34    33    1
    95    35    36    1
    96    90    91    1
    97    95    96    1
    98    91    93    1
    99    91    92    1
   100    91    94    1
   101    36    37    1
   102    36    38    1
   103    36    39    1
