@<TRIPOS>MOLECULE
mol_data/opt/m06hf/geoms/mol2/12eg12eg-12eg-12eg-.out
 42 45 0 0 0
SMALL
GASTEIGER

@<TRIPOS>ATOM
      1 C           0.7492    1.6317   -0.1326 C.ar    1  LIG1        0.1092
      2 C           2.0078    1.8358    0.3411 C.ar    1  LIG1        0.0762
      3 C           2.1896    3.2704    0.3786 C.ar    1  LIG1        0.0691
      4 C           1.0195    3.7925   -0.0852 C.ar    1  LIG1        0.1852
      5 O           0.1513    2.7962   -0.3979 O.2     1  LIG1       -0.4574
      6 H           0.1896    0.7335   -0.3251 H       1  LIG1        0.1042
      7 C           2.9559    0.8409    0.7397 C.1     1  LIG1       -0.0654
      8 C           3.7594    0.0160    1.0794 C.1     1  LIG1       -0.1138
      9 H           4.4745   -0.7138    1.3803 H       1  LIG1        0.1232
     10 S           3.6378    4.0174    1.0381 S.3     1  LIG1       -0.1377
     11 H           3.4772    5.2048    0.4405 H       1  LIG1        0.1073
     12 C           0.5348    5.1529   -0.2639 C.ar    1  LIG1        0.1882
     13 C           1.1222    6.2921   -0.7424 C.ar    1  LIG1        0.0874
     14 C           0.1238    7.3308   -0.6474 C.ar    1  LIG1        0.0699
     15 C          -0.9788    6.7219   -0.1266 C.ar    1  LIG1        0.1863
     16 O          -0.7263    5.4096    0.1076 O.2     1  LIG1       -0.4461
     17 C           2.4303    6.4222   -1.3017 C.1     1  LIG1       -0.0646
     18 C           3.5293    6.5379   -1.7755 C.1     1  LIG1       -0.1138
     19 H           4.4987    6.6337   -2.2080 H       1  LIG1        0.1232
     20 S           0.4025    8.9574   -1.2501 S.3     1  LIG1       -0.1377
     21 H          -0.6343    9.5190   -0.6185 H       1  LIG1        0.1073
     22 C          -2.3207    7.1863    0.1904 C.ar    1  LIG1        0.1882
     23 C          -2.7960    8.3380    0.7563 C.ar    1  LIG1        0.0874
     24 C          -4.2328    8.2004    0.8016 C.ar    1  LIG1        0.0699
     25 C          -4.4925    6.9733    0.2697 C.ar    1  LIG1        0.1863
     26 O          -3.3398    6.3681   -0.1070 O.2     1  LIG1       -0.4461
     27 C          -2.0326    9.4278    1.2761 C.1     1  LIG1       -0.0646
     28 C          -1.3969   10.3490    1.7148 C.1     1  LIG1       -0.1138
     29 H          -0.8313   11.1581    2.1165 H       1  LIG1        0.1232
     30 S          -5.2807    9.3926    1.5608 S.3     1  LIG1       -0.1377
     31 H          -6.3613    9.1199    0.8181 H       1  LIG1        0.1073
     32 C          -5.7198    6.2193    0.0576 C.ar    1  LIG1        0.1872
     33 C          -6.9582    6.5763   -0.3992 C.ar    1  LIG1        0.0866
     34 C          -7.7513    5.3692   -0.3700 C.ar    1  LIG1        0.0587
     35 C          -6.9212    4.3998    0.0815 C.ar    1  LIG1        0.1071
     36 O          -5.6967    4.9086    0.3420 O.2     1  LIG1       -0.4574
     37 H          -7.0551    3.3481    0.2626 H       1  LIG1        0.1041
     38 C          -7.3746    7.8566   -0.8771 C.1     1  LIG1       -0.0647
     39 C          -7.7386    8.9277   -1.2853 C.1     1  LIG1       -0.1138
     40 H          -8.0546    9.8728   -1.6638 H       1  LIG1        0.1232
     41 S          -9.4416    5.3061   -0.8656 S.3     1  LIG1       -0.1384
     42 H          -9.5511    3.9796   -0.7438 H       1  LIG1        0.1072
@<TRIPOS>BOND
     1    19    18    1
     2    18    17    3
     3    40    39    1
     4    17    13    1
     5    39    38    3
     6    20    14    1
     7    20    21    1
     8    38    33    1
     9    41    42    1
    10    41    34    1
    11    13    14   ar
    12    13    12   ar
    13    14    15   ar
    14    33    34   ar
    15    33    32   ar
    16     5     1   ar
    17     5     4   ar
    18    34    35   ar
    19     6     1    1
    20    12     4    1
    21    12    16   ar
    22     1     2   ar
    23    15    16   ar
    24    15    22    1
    25    26    22   ar
    26    26    25   ar
    27     4     3   ar
    28    32    25    1
    29    32    36   ar
    30    35    37    1
    31    35    36   ar
    32    22    23   ar
    33    25    24   ar
    34     2     3   ar
    35     2     7    1
    36     3    10    1
    37    11    10    1
    38     7     8    3
    39    23    24   ar
    40    23    27    1
    41    24    30    1
    42    31    30    1
    43     8     9    1
    44    27    28    3
    45    28    29    1
