@<TRIPOS>MOLECULE
mol_data/opt/m06hf/geoms/mol2/12eg12eg.out
 22 23 0 0 0
SMALL
GASTEIGER

@<TRIPOS>ATOM
      1 C           0.3185    1.8534    0.7127 C.ar    1  LIG1        0.1092
      2 C           1.5284    1.8018    0.0933 C.ar    1  LIG1        0.0762
      3 C           1.8191    3.1567   -0.3227 C.ar    1  LIG1        0.0691
      4 C           0.7541    3.8968    0.0945 C.ar    1  LIG1        0.1852
      5 O          -0.1498    3.1054    0.7255 O.2     1  LIG1       -0.4574
      6 H          -0.2886    1.0943    1.1731 H       1  LIG1        0.1042
      7 C           2.3406    0.6424   -0.1197 C.1     1  LIG1       -0.0654
      8 C           3.0258   -0.3262   -0.3057 C.1     1  LIG1       -0.1138
      9 H           3.6364   -1.1837   -0.4712 H       1  LIG1        0.1232
     10 S           3.2347    3.5886   -1.2751 S.3     1  LIG1       -0.1377
     11 H           3.3344    4.8436   -0.8189 H       1  LIG1        0.1073
     12 C           0.4131    5.3075   -0.0248 C.ar    1  LIG1        0.1872
     13 C           1.1427    6.4529    0.1301 C.ar    1  LIG1        0.0866
     14 C           0.2334    7.5411   -0.1462 C.ar    1  LIG1        0.0587
     15 C          -0.9577    6.9593   -0.4202 C.ar    1  LIG1        0.1071
     16 O          -0.8522    5.6132   -0.3518 O.2     1  LIG1       -0.4574
     17 H          -1.9255    7.3557   -0.6704 H       1  LIG1        0.1041
     18 C           2.5063    6.5688    0.5419 C.1     1  LIG1       -0.0647
     19 C           3.6537    6.6837    0.8851 C.1     1  LIG1       -0.1138
     20 H           4.6658    6.7837    1.2057 H       1  LIG1        0.1232
     21 S           0.7045    9.2389   -0.0787 S.3     1  LIG1       -0.1384
     22 H          -0.4980    9.7097   -0.4227 H       1  LIG1        0.1072
@<TRIPOS>BOND
     1    10    11    1
     2    10     3    1
     3    17    15    1
     4     9     8    1
     5    22    21    1
     6    15    16   ar
     7    15    14   ar
     8    16    12   ar
     9     3     2   ar
    10     3     4   ar
    11     8     7    3
    12    14    21    1
    13    14    13   ar
    14     7     2    1
    15    12     4    1
    16    12    13   ar
    17     2     1   ar
    18     4     5   ar
    19    13    18    1
    20    18    19    3
    21     1     5   ar
    22     1     6    1
    23    19    20    1
