@<TRIPOS>MOLECULE
mol_data/opt/m06hf/geoms/mol2/12eg12eg-12eg12eg-.out
 42 45 0 0 0
SMALL
GASTEIGER

@<TRIPOS>ATOM
      1 C           1.3098    2.2051   -1.7929 C.ar    1  LIG1        0.1092
      2 C           2.0774    1.9304   -0.7045 C.ar    1  LIG1        0.0762
      3 C           1.9667    3.0843    0.1610 C.ar    1  LIG1        0.0691
      4 C           1.1435    3.9479   -0.4970 C.ar    1  LIG1        0.1852
      5 O           0.7514    3.4138   -1.6814 O.2     1  LIG1       -0.4574
      6 H           1.0951    1.6425   -2.6840 H       1  LIG1        0.1042
      7 C           2.8283    0.7386   -0.4517 C.1     1  LIG1       -0.0654
      8 C           3.4594   -0.2578   -0.2272 C.1     1  LIG1       -0.1138
      9 H           4.0218   -1.1400   -0.0260 H       1  LIG1        0.1232
     10 S           2.7018    3.1465    1.7570 S.3     1  LIG1       -0.1377
     11 H           2.7621    4.4810    1.8398 H       1  LIG1        0.1073
     12 C           0.6155    5.2656   -0.1740 C.ar    1  LIG1        0.1882
     13 C           1.1898    6.3827    0.3666 C.ar    1  LIG1        0.0874
     14 C           0.1424    7.3724    0.4524 C.ar    1  LIG1        0.0699
     15 C          -0.9627    6.7704   -0.0688 C.ar    1  LIG1        0.1863
     16 O          -0.6760    5.4980   -0.4434 O.2     1  LIG1       -0.4461
     17 C           2.5589    6.5623    0.7322 C.1     1  LIG1       -0.0646
     18 C           3.7086    6.7214    1.0464 C.1     1  LIG1       -0.1138
     19 H           4.7315    6.8645    1.3093 H       1  LIG1        0.1232
     20 S           0.4027    8.9513    1.1746 S.3     1  LIG1       -0.1377
     21 H          -0.7534    9.4843    0.7655 H       1  LIG1        0.1073
     22 C          -2.3345    7.2141   -0.2679 C.ar    1  LIG1        0.1882
     23 C          -2.8655    8.3844   -0.7351 C.ar    1  LIG1        0.0874
     24 C          -4.2990    8.2192   -0.6948 C.ar    1  LIG1        0.0699
     25 C          -4.5027    6.9624   -0.2084 C.ar    1  LIG1        0.1863
     26 O          -3.3152    6.3591    0.0507 O.2     1  LIG1       -0.4461
     27 C          -2.1553    9.5179   -1.2376 C.1     1  LIG1       -0.0646
     28 C          -1.5644   10.4756   -1.6596 C.1     1  LIG1       -0.1138
     29 H          -1.0353   11.3163   -2.0460 H       1  LIG1        0.1232
     30 S          -5.3929    9.4480   -1.3066 S.3     1  LIG1       -0.1377
     31 H          -6.5184    8.8384   -0.9219 H       1  LIG1        0.1073
     32 C          -5.6991    6.1802    0.0674 C.ar    1  LIG1        0.1872
     33 C          -6.9077    6.5042    0.6190 C.ar    1  LIG1        0.0866
     34 C          -7.6766    5.2812    0.6260 C.ar    1  LIG1        0.0587
     35 C          -6.8636    4.3360    0.0985 C.ar    1  LIG1        0.1071
     36 O          -5.6712    4.8747   -0.2415 O.2     1  LIG1       -0.4574
     37 H          -6.9890    3.2843   -0.0889 H       1  LIG1        0.1041
     38 C          -7.3188    7.7694    1.1401 C.1     1  LIG1       -0.0647
     39 C          -7.6767    8.8311    1.5756 C.1     1  LIG1       -0.1138
     40 H          -7.9819    9.7724    1.9716 H       1  LIG1        0.1232
     41 S          -9.3249    5.1872    1.2444 S.3     1  LIG1       -0.1384
     42 H          -9.4169    3.8561    1.1557 H       1  LIG1        0.1072
@<TRIPOS>BOND
     1     6     1    1
     2    29    28    1
     3     1     5   ar
     4     1     2   ar
     5     5     4   ar
     6    28    27    3
     7    30    31    1
     8    30    24    1
     9    27    23    1
    10    23    24   ar
    11    23    22   ar
    12     2     7    1
    13     2     3   ar
    14    24    25   ar
    15     4    12    1
    16     4     3   ar
    17     7     8    3
    18    16    12   ar
    19    16    15   ar
    20    22    15    1
    21    22    26   ar
    22    36    32   ar
    23    36    35   ar
    24     8     9    1
    25    25    26   ar
    26    25    32    1
    27    12    13   ar
    28    37    35    1
    29    15    14   ar
    30    32    33   ar
    31    35    34   ar
    32     3    10    1
    33    13    14   ar
    34    13    17    1
    35    14    20    1
    36    33    34   ar
    37    33    38    1
    38    34    41    1
    39    17    18    3
    40    21    20    1
    41    18    19    1
    42    38    39    3
    43    42    41    1
    44    39    40    1
    45    10    11    1
