@<TRIPOS>MOLECULE
mol_data/opt/m06hf/geoms/mol2/12eg12eg12eg.out
 32 34 0 0 0
SMALL
GASTEIGER

@<TRIPOS>ATOM
      1 C           0.4717    1.7168    0.4958 C.ar    1  LIG1        0.1092
      2 C           1.6295    1.8051   -0.2121 C.ar    1  LIG1        0.0762
      3 C           1.8695    3.2184   -0.4059 C.ar    1  LIG1        0.0691
      4 C           0.8307    3.8465    0.2134 C.ar    1  LIG1        0.1852
      5 O          -0.0117    2.9333    0.7617 O.2     1  LIG1       -0.4574
      6 H          -0.0858    0.8724    0.8602 H       1  LIG1        0.1042
      7 C           2.4381    0.7263   -0.6918 C.1     1  LIG1       -0.0654
      8 C           3.1234   -0.1686   -1.1056 C.1     1  LIG1       -0.1138
      9 H           3.7314   -0.9621   -1.4740 H       1  LIG1        0.1232
     10 S           3.2092    3.8199   -1.3706 S.3     1  LIG1       -0.1377
     11 H           3.2013    5.0613   -0.8737 H       1  LIG1        0.1073
     12 C           0.4530    5.2440    0.3600 C.ar    1  LIG1        0.1882
     13 C           1.1733    6.3768    0.6244 C.ar    1  LIG1        0.0874
     14 C           0.2260    7.4663    0.6207 C.ar    1  LIG1        0.0699
     15 C          -0.9825    6.8900    0.3669 C.ar    1  LIG1        0.1863
     16 O          -0.8418    5.5513    0.2000 O.2     1  LIG1       -0.4461
     17 C           2.5674    6.4635    0.9241 C.1     1  LIG1       -0.0646
     18 C           3.7403    6.5412    1.1762 C.1     1  LIG1       -0.1138
     19 H           4.7774    6.6069    1.4141 H       1  LIG1        0.1232
     20 S           0.6805    9.1176    1.0158 S.3     1  LIG1       -0.1377
     21 H          -0.3585    9.6979    0.4056 H       1  LIG1        0.1073
     22 C          -2.3345    7.4194    0.2609 C.ar    1  LIG1        0.1872
     23 C          -2.8451    8.5355   -0.3417 C.ar    1  LIG1        0.0866
     24 C          -4.2655    8.5094   -0.0805 C.ar    1  LIG1        0.0587
     25 C          -4.4827    7.3810    0.6352 C.ar    1  LIG1        0.1071
     26 O          -3.3207    6.7235    0.8466 O.2     1  LIG1       -0.4574
     27 H          -5.3713    6.9348    1.0443 H       1  LIG1        0.1041
     28 C          -2.1408    9.5013   -1.1242 C.1     1  LIG1       -0.0647
     29 C          -1.5586   10.3219   -1.7827 C.1     1  LIG1       -0.1138
     30 H          -1.0433   11.0398   -2.3790 H       1  LIG1        0.1232
     31 S          -5.3745    9.7525   -0.6554 S.3     1  LIG1       -0.1384
     32 H          -6.4726    9.1741   -0.1593 H       1  LIG1        0.1072
@<TRIPOS>BOND
     1    30    29    1
     2    29    28    3
     3     9     8    1
     4    10    11    1
     5    10     3    1
     6    28    23    1
     7     8     7    3
     8     7     2    1
     9    31    32    1
    10    31    24    1
    11     3     2   ar
    12     3     4   ar
    13    23    24   ar
    14    23    22   ar
    15     2     1   ar
    16    24    25   ar
    17    16    12   ar
    18    16    15   ar
    19     4    12    1
    20     4     5   ar
    21    22    15    1
    22    22    26   ar
    23    12    13   ar
    24    15    14   ar
    25    21    20    1
    26     1     5   ar
    27     1     6    1
    28    14    13   ar
    29    14    20    1
    30    13    17    1
    31    25    26   ar
    32    25    27    1
    33    17    18    3
    34    18    19    1
