@<TRIPOS>MOLECULE
mol_data/opt/m06hf/geoms/mol2/12eg12eg12eg12eg.out
 42 45 0 0 0
SMALL
GASTEIGER

@<TRIPOS>ATOM
      1 C           0.7429    1.6286    0.1229 C.ar    1  LIG1        0.1092
      2 C           2.0148    1.8374   -0.3114 C.ar    1  LIG1        0.0762
      3 C           2.1983    3.2722   -0.3264 C.ar    1  LIG1        0.0691
      4 C           1.0154    3.7896    0.1094 C.ar    1  LIG1        0.1852
      5 O           0.1381    2.7904    0.3847 O.2     1  LIG1       -0.4574
      6 H           0.1775    0.7286    0.2883 H       1  LIG1        0.1042
      7 C           2.9737    0.8467   -0.6943 C.1     1  LIG1       -0.0654
      8 C           3.7865    0.0254   -1.0203 C.1     1  LIG1       -0.1138
      9 H           4.5095   -0.7016   -1.3091 H       1  LIG1        0.1232
     10 S           3.6653    4.0260   -0.9347 S.3     1  LIG1       -0.1377
     11 H           3.4880    5.2060   -0.3273 H       1  LIG1        0.1073
     12 C           0.5263    5.1482    0.2904 C.ar    1  LIG1        0.1882
     13 C           1.1000    6.2812    0.7992 C.ar    1  LIG1        0.0874
     14 C           0.1053    7.3218    0.6873 C.ar    1  LIG1        0.0699
     15 C          -0.9820    6.7198    0.1278 C.ar    1  LIG1        0.1863
     16 O          -0.7234    5.4102   -0.1145 O.2     1  LIG1       -0.4461
     17 C           2.3913    6.4037    1.3979 C.1     1  LIG1       -0.0646
     18 C           3.4760    6.5131    1.9048 C.1     1  LIG1       -0.1138
     19 H           4.4324    6.6035    2.3665 H       1  LIG1        0.1232
     20 S           0.3671    8.9410    1.3169 S.3     1  LIG1       -0.1377
     21 H          -0.6510    9.5107    0.6622 H       1  LIG1        0.1073
     22 C          -2.3140    7.1890   -0.2225 C.ar    1  LIG1        0.1882
     23 C          -2.7723    8.3476   -0.7882 C.ar    1  LIG1        0.0874
     24 C          -4.2072    8.2115   -0.8769 C.ar    1  LIG1        0.0699
     25 C          -4.4826    6.9783   -0.3676 C.ar    1  LIG1        0.1863
     26 O          -3.3416    6.3679    0.0352 O.2     1  LIG1       -0.4461
     27 C          -1.9938    9.4432   -1.2724 C.1     1  LIG1       -0.0646
     28 C          -1.3454   10.3691   -1.6815 C.1     1  LIG1       -0.1138
     29 H          -0.7682   11.1827   -2.0570 H       1  LIG1        0.1232
     30 S          -5.2324    9.4133   -1.6518 S.3     1  LIG1       -0.1377
     31 H          -6.3340    9.1324   -0.9440 H       1  LIG1        0.1073
     32 C          -5.7158    6.2226   -0.2004 C.ar    1  LIG1        0.1872
     33 C          -6.9667    6.5749    0.2248 C.ar    1  LIG1        0.0866
     34 C          -7.7591    5.3688    0.1581 C.ar    1  LIG1        0.0587
     35 C          -6.9167    4.4043   -0.2811 C.ar    1  LIG1        0.1071
     36 O          -5.6850    4.9154   -0.4997 O.2     1  LIG1       -0.4574
     37 H          -7.0457    3.3550   -0.4786 H       1  LIG1        0.1041
     38 C          -7.3962    7.8497    0.7060 C.1     1  LIG1       -0.0647
     39 C          -7.7716    8.9161    1.1160 C.1     1  LIG1       -0.1138
     40 H          -8.0982    9.8568    1.4966 H       1  LIG1        0.1232
     41 S          -9.4630    5.3010    0.6040 S.3     1  LIG1       -0.1384
     42 H          -9.5692    3.9762    0.4631 H       1  LIG1        0.1072
@<TRIPOS>BOND
     1    29    28    1
     2    28    27    3
     3    30    31    1
     4    30    24    1
     5     9     8    1
     6    27    23    1
     7     8     7    3
     8    10    11    1
     9    10     3    1
    10    24    23   ar
    11    24    25   ar
    12    23    22   ar
    13     7     2    1
    14    36    35   ar
    15    36    32   ar
    16    37    35    1
    17    25    32    1
    18    25    26   ar
    19     3     2   ar
    20     3     4   ar
    21     2     1   ar
    22    35    34   ar
    23    22    26   ar
    24    22    15    1
    25    32    33   ar
    26    16    15   ar
    27    16    12   ar
    28     4    12    1
    29     4     5   ar
    30     1     6    1
    31     1     5   ar
    32    15    14   ar
    33    34    33   ar
    34    34    41    1
    35    33    38    1
    36    12    13   ar
    37    42    41    1
    38    21    20    1
    39    14    13   ar
    40    14    20    1
    41    38    39    3
    42    13    17    1
    43    39    40    1
    44    17    18    3
    45    18    19    1
