@<TRIPOS>MOLECULE
mol_data/opt/m06hf/geoms/mol2/12eg12eg-12eg12eg.out
 42 45 0 0 0
SMALL
GASTEIGER

@<TRIPOS>ATOM
      1 C           0.7418    1.6268    0.1210 C.ar    1  LIG1        0.1092
      2 C           2.0083    1.8347   -0.3292 C.ar    1  LIG1        0.0762
      3 C           2.1925    3.2694   -0.3471 C.ar    1  LIG1        0.0691
      4 C           1.0154    3.7877    0.1032 C.ar    1  LIG1        0.1852
      5 O           0.1410    2.7891    0.3898 O.2     1  LIG1       -0.4574
      6 H           0.1779    0.7273    0.2937 H       1  LIG1        0.1042
      7 C           2.9618    0.8432   -0.7234 C.1     1  LIG1       -0.0654
      8 C           3.7700    0.0213   -1.0592 C.1     1  LIG1       -0.1138
      9 H           4.4889   -0.7061   -1.3570 H       1  LIG1        0.1232
     10 S           3.6522    4.0220   -0.9739 S.3     1  LIG1       -0.1377
     11 H           3.4833    5.2023   -0.3647 H       1  LIG1        0.1073
     12 C           0.5294    5.1467    0.2896 C.ar    1  LIG1        0.1882
     13 C           1.1101    6.2795    0.7908 C.ar    1  LIG1        0.0874
     14 C           0.1147    7.3206    0.6910 C.ar    1  LIG1        0.0699
     15 C          -0.9799    6.7190    0.1454 C.ar    1  LIG1        0.1863
     16 O          -0.7251    5.4092   -0.0997 O.2     1  LIG1       -0.4461
     17 C           2.4088    6.4015    1.3733 C.1     1  LIG1       -0.0646
     18 C           3.4999    6.5103    1.8666 C.1     1  LIG1       -0.1138
     19 H           4.4621    6.6000    2.3161 H       1  LIG1        0.1232
     20 S           0.3849    8.9399    1.3168 S.3     1  LIG1       -0.1377
     21 H          -0.6408    9.5099    0.6744 H       1  LIG1        0.1073
     22 C          -2.3158    7.1889   -0.1889 C.ar    1  LIG1        0.1882
     23 C          -2.7802    8.3476   -0.7494 C.ar    1  LIG1        0.0874
     24 C          -4.2162    8.2125   -0.8204 C.ar    1  LIG1        0.0699
     25 C          -4.4862    6.9797   -0.3073 C.ar    1  LIG1        0.1863
     26 O          -3.3407    6.3686    0.0817 O.2     1  LIG1       -0.4461
     27 C          -2.0071    9.4426   -1.2436 C.1     1  LIG1       -0.0646
     28 C          -1.3633   10.3680   -1.6611 C.1     1  LIG1       -0.1138
     29 H          -0.7904   11.1811   -2.0439 H       1  LIG1        0.1232
     30 S          -5.2500    9.4147   -1.5831 S.3     1  LIG1       -0.1377
     31 H          -6.3428    9.1353   -0.8611 H       1  LIG1        0.1073
     32 C          -5.7178    6.2249   -0.1245 C.ar    1  LIG1        0.1872
     33 C          -6.9630    6.5783    0.3163 C.ar    1  LIG1        0.0866
     34 C          -7.7570    5.3728    0.2598 C.ar    1  LIG1        0.0587
     35 C          -6.9209    4.4075   -0.1897 C.ar    1  LIG1        0.1071
     36 O          -5.6917    4.9177   -0.4239 O.2     1  LIG1       -0.4574
     37 H          -7.0532    3.3582   -0.3854 H       1  LIG1        0.1041
     38 C          -7.3854    7.8535    0.8024 C.1     1  LIG1       -0.0647
     39 C          -7.7548    8.9204    1.2168 C.1     1  LIG1       -0.1138
     40 H          -8.0757    9.8615    1.6011 H       1  LIG1        0.1232
     41 S          -9.4552    5.3064    0.7272 S.3     1  LIG1       -0.1384
     42 H          -9.5641    3.9816    0.5881 H       1  LIG1        0.1072
@<TRIPOS>BOND
     1    29    28    1
     2    28    27    3
     3    30    31    1
     4    30    24    1
     5     9     8    1
     6    27    23    1
     7     8     7    3
     8    10    11    1
     9    10     3    1
    10    24    23   ar
    11    24    25   ar
    12    23    22   ar
    13     7     2    1
    14    36    35   ar
    15    36    32   ar
    16    37    35    1
    17     3     2   ar
    18     3     4   ar
    19     2     1   ar
    20    25    32    1
    21    25    26   ar
    22    35    34   ar
    23    22    26   ar
    24    22    15    1
    25    32    33   ar
    26    16    15   ar
    27    16    12   ar
    28     4    12    1
    29     4     5   ar
    30     1     6    1
    31     1     5   ar
    32    15    14   ar
    33    34    33   ar
    34    34    41    1
    35    12    13   ar
    36    33    38    1
    37    42    41    1
    38    21    20    1
    39    14    13   ar
    40    14    20    1
    41    13    17    1
    42    38    39    3
    43    39    40    1
    44    17    18    3
    45    18    19    1
