@<TRIPOS>MOLECULE
mol_data/opt/m06hf/geoms/mol2/12eg12eg-.out
 22 23 0 0 0
SMALL
GASTEIGER

@<TRIPOS>ATOM
      1 C           0.2972    1.8545    0.6955 C.ar    1  LIG1        0.1092
      2 C           1.5289    1.7985    0.1215 C.ar    1  LIG1        0.0762
      3 C           1.8355    3.1504   -0.2918 C.ar    1  LIG1        0.0691
      4 C           0.7600    3.8959    0.0857 C.ar    1  LIG1        0.1852
      5 O          -0.1715    3.1053    0.6812 O.2     1  LIG1       -0.4574
      6 H          -0.3270    1.0974    1.1361 H       1  LIG1        0.1042
      7 C           2.3545    0.6434   -0.0594 C.1     1  LIG1       -0.0654
      8 C           3.0594   -0.3156   -0.2210 C.1     1  LIG1       -0.1138
      9 H           3.6858   -1.1656   -0.3647 H       1  LIG1        0.1232
     10 S           3.3042    3.5514   -1.1665 S.3     1  LIG1       -0.1377
     11 H           3.1026    4.8737   -1.1786 H       1  LIG1        0.1073
     12 C           0.4253    5.3067   -0.0439 C.ar    1  LIG1        0.1872
     13 C           1.1561    6.4525    0.1092 C.ar    1  LIG1        0.0866
     14 C           0.2475    7.5398   -0.1748 C.ar    1  LIG1        0.0587
     15 C          -0.9426    6.9581   -0.4531 C.ar    1  LIG1        0.1071
     16 O          -0.8395    5.6125   -0.3753 O.2     1  LIG1       -0.4574
     17 H          -1.9087    7.3547   -0.7101 H       1  LIG1        0.1041
     18 C           2.5205    6.5699    0.5183 C.1     1  LIG1       -0.0647
     19 C           3.6698    6.6813    0.8530 C.1     1  LIG1       -0.1138
     20 H           4.6860    6.7708    1.1624 H       1  LIG1        0.1232
     21 S           0.7212    9.2379   -0.1246 S.3     1  LIG1       -0.1384
     22 H          -0.5244    9.7147   -0.1997 H       1  LIG1        0.1072
@<TRIPOS>BOND
     1    11    10    1
     2    10     3    1
     3    17    15    1
     4    15    16   ar
     5    15    14   ar
     6    16    12   ar
     7     9     8    1
     8     3     4   ar
     9     3     2   ar
    10     8     7    3
    11    22    21    1
    12    14    21    1
    13    14    13   ar
    14     7     2    1
    15    12     4    1
    16    12    13   ar
    17     4     5   ar
    18    13    18    1
    19     2     1   ar
    20    18    19    3
    21     5     1   ar
    22     1     6    1
    23    19    20    1
