@<TRIPOS>MOLECULE
mol_data/opt/m06hf/geoms/mol2/12eg12eg-12eg-.out
 32 34 0 0 0
SMALL
GASTEIGER

@<TRIPOS>ATOM
      1 C           0.4823    1.7209   -0.5236 C.ar    1  LIG1        0.1092
      2 C           1.6343    1.8069    0.1939 C.ar    1  LIG1        0.0762
      3 C           1.8705    3.2194    0.3979 C.ar    1  LIG1        0.0691
      4 C           0.8357    3.8494   -0.2261 C.ar    1  LIG1        0.1852
      5 O          -0.0009    2.9381   -0.7863 O.2     1  LIG1       -0.4574
      6 H          -0.0709    0.8777   -0.8972 H       1  LIG1        0.1042
      7 C           2.4409    0.7266    0.6739 C.1     1  LIG1       -0.0654
      8 C           3.1243   -0.1696    1.0879 C.1     1  LIG1       -0.1138
      9 H           3.7306   -0.9642    1.4565 H       1  LIG1        0.1232
     10 S           3.2016    3.8175    1.3766 S.3     1  LIG1       -0.1377
     11 H           3.1955    5.0616    0.8867 H       1  LIG1        0.1073
     12 C           0.4569    5.2471   -0.3676 C.ar    1  LIG1        0.1882
     13 C           1.1773    6.3826   -0.6197 C.ar    1  LIG1        0.0874
     14 C           0.2284    7.4706   -0.6172 C.ar    1  LIG1        0.0699
     15 C          -0.9812    6.8909   -0.3763 C.ar    1  LIG1        0.1863
     16 O          -0.8397    5.5516   -0.2161 O.2     1  LIG1       -0.4461
     17 C           2.5737    6.4732   -0.9078 C.1     1  LIG1       -0.0646
     18 C           3.7484    6.5543   -1.1502 C.1     1  LIG1       -0.1138
     19 H           4.7873    6.6230   -1.3795 H       1  LIG1        0.1232
     20 S           0.6833    9.1249   -0.9992 S.3     1  LIG1       -0.1377
     21 H          -0.3615    9.7000   -0.3938 H       1  LIG1        0.1073
     22 C          -2.3349    7.4176   -0.2780 C.ar    1  LIG1        0.1872
     23 C          -2.8520    8.5294    0.3270 C.ar    1  LIG1        0.0866
     24 C          -4.2703    8.5027    0.0543 C.ar    1  LIG1        0.0587
     25 C          -4.4799    7.3781   -0.6697 C.ar    1  LIG1        0.1071
     26 O          -3.3153    6.7236   -0.8756 O.2     1  LIG1       -0.4574
     27 H          -5.3646    6.9329   -1.0883 H       1  LIG1        0.1041
     28 C          -2.1555    9.4917    1.1206 C.1     1  LIG1       -0.0647
     29 C          -1.5798   10.3093    1.7885 C.1     1  LIG1       -0.1138
     30 H          -1.0705   11.0245    2.3932 H       1  LIG1        0.1232
     31 S          -5.3857    9.7407    0.6276 S.3     1  LIG1       -0.1384
     32 H          -6.4790    9.1635    0.1195 H       1  LIG1        0.1072
@<TRIPOS>BOND
     1    19    18    1
     2    18    17    3
     3    27    25    1
     4    20    14    1
     5    20    21    1
     6    17    13    1
     7     6     1    1
     8    26    25   ar
     9    26    22   ar
    10     5     1   ar
    11     5     4   ar
    12    25    24   ar
    13    13    14   ar
    14    13    12   ar
    15    14    15   ar
    16     1     2   ar
    17    15    22    1
    18    15    16   ar
    19    12     4    1
    20    12    16   ar
    21    22    23   ar
    22     4     3   ar
    23    24    23   ar
    24    24    31    1
    25    32    31    1
    26     2     3   ar
    27     2     7    1
    28    23    28    1
    29     3    10    1
    30     7     8    3
    31    11    10    1
    32     8     9    1
    33    28    29    3
    34    29    30    1
