@<TRIPOS>MOLECULE
mol_data/opt/m06hf/geoms/mol2/12eg12eg-12eg-12eg.out
 42 45 0 0 0
SMALL
GASTEIGER

@<TRIPOS>ATOM
      1 C           0.8664    2.3075    2.0734 C.ar    1  LIG1        0.1092
      2 C           1.7772    1.9423    1.1313 C.ar    1  LIG1        0.0762
      3 C           1.8667    3.0565    0.2125 C.ar    1  LIG1        0.0691
      4 C           1.0020    3.9914    0.6974 C.ar    1  LIG1        0.1852
      5 O           0.4015    3.5351    1.8265 O.2     1  LIG1       -0.4574
      6 H           0.4836    1.7998    2.9412 H       1  LIG1        0.1042
      7 C           2.4910    0.7049    1.0460 C.1     1  LIG1       -0.0654
      8 C           3.0970   -0.3277    0.9569 C.1     1  LIG1       -0.1138
      9 H           3.6373   -1.2424    0.8758 H       1  LIG1        0.1232
     10 S           2.8456    2.9943   -1.2447 S.3     1  LIG1       -0.1377
     11 H           2.9041    4.3169   -1.4380 H       1  LIG1        0.1073
     12 C           0.5904    5.3103    0.2406 C.ar    1  LIG1        0.1882
     13 C           1.2758    6.3727   -0.2822 C.ar    1  LIG1        0.0874
     14 C           0.2900    7.3933   -0.5528 C.ar    1  LIG1        0.0699
     15 C          -0.8964    6.8623   -0.1461 C.ar    1  LIG1        0.1863
     16 O          -0.7132    5.6077    0.3334 O.2     1  LIG1       -0.4461
     17 C           2.6863    6.4795   -0.4849 C.1     1  LIG1       -0.0646
     18 C           3.8709    6.5757   -0.6662 C.1     1  LIG1       -0.1138
     19 H           4.9229    6.6659   -0.8132 H       1  LIG1        0.1232
     20 S           0.6882    8.9110   -1.3480 S.3     1  LIG1       -0.1377
     21 H          -0.3327    9.6117   -0.8403 H       1  LIG1        0.1073
     22 C          -2.2658    7.3565   -0.1524 C.ar    1  LIG1        0.1882
     23 C          -2.8180    8.5652    0.1710 C.ar    1  LIG1        0.0874
     24 C          -4.2373    8.4331   -0.0615 C.ar    1  LIG1        0.0699
     25 C          -4.4134    7.1487   -0.4818 C.ar    1  LIG1        0.1863
     26 O          -3.2239    6.5011   -0.5333 O.2     1  LIG1       -0.4461
     27 C          -2.1376    9.7146    0.6785 C.1     1  LIG1       -0.0646
     28 C          -1.5657   10.6845    1.1003 C.1     1  LIG1       -0.1138
     29 H          -1.0611   11.5379    1.4920 H       1  LIG1        0.1232
     30 S          -5.3615    9.7736    0.1137 S.3     1  LIG1       -0.1377
     31 H          -6.4401    9.0240    0.3755 H       1  LIG1        0.1073
     32 C          -5.5835    6.3846   -0.8901 C.ar    1  LIG1        0.1872
     33 C          -6.8494    6.2837   -0.3832 C.ar    1  LIG1        0.0866
     34 C          -7.5488    5.3645   -1.2506 C.ar    1  LIG1        0.0587
     35 C          -6.6435    4.9848   -2.1836 C.ar    1  LIG1        0.1071
     36 O          -5.4599    5.6005   -1.9712 O.2     1  LIG1       -0.4574
     37 H          -6.6938    4.3130   -3.0221 H       1  LIG1        0.1041
     38 C          -7.3656    6.9015    0.7970 C.1     1  LIG1       -0.0647
     39 C          -7.8134    7.4142    1.7882 C.1     1  LIG1       -0.1138
     40 H          -8.2031    7.8551    2.6770 H       1  LIG1        0.1232
     41 S          -9.2308    4.8931   -1.0130 S.3     1  LIG1       -0.1384
     42 H          -9.2726    4.0756   -2.0680 H       1  LIG1        0.1072
@<TRIPOS>BOND
     1    37    35    1
     2    35    36   ar
     3    35    34   ar
     4    42    41    1
     5    36    32   ar
     6    11    10    1
     7    20    21    1
     8    20    14    1
     9    34    41    1
    10    34    33   ar
    11    10     3    1
    12    32    25    1
    13    32    33   ar
    14    19    18    1
    15    18    17    3
    16    14    13   ar
    17    14    15   ar
    18    26    25   ar
    19    26    22   ar
    20    17    13    1
    21    25    24   ar
    22    33    38    1
    23    13    12   ar
    24    22    15    1
    25    22    23   ar
    26    15    16   ar
    27    24    30    1
    28    24    23   ar
    29    30    31    1
    30    23    27    1
    31     3     4   ar
    32     3     2   ar
    33    12    16   ar
    34    12     4    1
    35    27    28    3
    36     4     5   ar
    37    38    39    3
    38     9     8    1
    39     8     7    3
    40     7     2    1
    41    28    29    1
    42     2     1   ar
    43    39    40    1
    44     5     1   ar
    45     1     6    1
