@<TRIPOS>MOLECULE
mol_data/opt/m06hf/geoms/mol2/12eg12eg12eg-12eg.out
 42 45 0 0 0
SMALL
GASTEIGER

@<TRIPOS>ATOM
      1 C           0.8482    2.3077    2.0679 C.ar    1  LIG1        0.1092
      2 C           1.7666    1.9418    1.1334 C.ar    1  LIG1        0.0762
      3 C           1.8642    3.0555    0.2150 C.ar    1  LIG1        0.0691
      4 C           0.9958    3.9909    0.6923 C.ar    1  LIG1        0.1852
      5 O           0.3859    3.5353    1.8166 O.2     1  LIG1       -0.4574
      6 H           0.4580    1.8004    2.9326 H       1  LIG1        0.1042
      7 C           2.4806    0.7041    1.0546 C.1     1  LIG1       -0.0654
      8 C           3.0871   -0.3288    0.9709 C.1     1  LIG1       -0.1138
      9 H           3.6277   -1.2437    0.8946 H       1  LIG1        0.1232
     10 S           2.8550    2.9923   -1.2341 S.3     1  LIG1       -0.1377
     11 H           2.9154    4.3148   -1.4275 H       1  LIG1        0.1073
     12 C           0.5884    5.3097    0.2316 C.ar    1  LIG1        0.1882
     13 C           1.2784    6.3717   -0.2859 C.ar    1  LIG1        0.0874
     14 C           0.2952    7.3926   -0.5650 C.ar    1  LIG1        0.0699
     15 C          -0.8947    6.8621   -0.1679 C.ar    1  LIG1        0.1863
     16 O          -0.7158    5.6077    0.3136 O.2     1  LIG1       -0.4461
     17 C           2.6905    6.4781   -0.4771 C.1     1  LIG1       -0.0646
     18 C           3.8767    6.5738   -0.6487 C.1     1  LIG1       -0.1138
     19 H           4.9298    6.6638   -0.7871 H       1  LIG1        0.1232
     20 S           0.7004    8.9098   -1.3575 S.3     1  LIG1       -0.1377
     21 H          -0.3242    9.6112   -0.8582 H       1  LIG1        0.1073
     22 C          -2.2638    7.3567   -0.1854 C.ar    1  LIG1        0.1882
     23 C          -2.8183    8.5657    0.1330 C.ar    1  LIG1        0.0874
     24 C          -4.2357    8.4338   -0.1107 C.ar    1  LIG1        0.0699
     25 C          -4.4087    7.1493   -0.5320 C.ar    1  LIG1        0.1863
     26 O          -3.2191    6.5014   -0.5737 O.2     1  LIG1       -0.4461
     27 C          -2.1417    9.7151    0.6455 C.1     1  LIG1       -0.0646
     28 C          -1.5730   10.6850    1.0715 C.1     1  LIG1       -0.1138
     29 H          -1.0714   11.5384    1.4670 H       1  LIG1        0.1232
     30 S          -5.3610    9.7746    0.0551 S.3     1  LIG1       -0.1377
     31 H          -6.4417    9.0254    0.3087 H       1  LIG1        0.1073
     32 C          -5.5757    6.3852   -0.9492 C.ar    1  LIG1        0.1872
     33 C          -6.8456    6.2848   -0.4522 C.ar    1  LIG1        0.0866
     34 C          -7.5382    5.3653   -1.3246 C.ar    1  LIG1        0.0587
     35 C          -6.6256    4.9849   -2.2503 C.ar    1  LIG1        0.1071
     36 O          -5.4437    5.6005   -2.0289 O.2     1  LIG1       -0.4574
     37 H          -6.6694    4.3127   -3.0888 H       1  LIG1        0.1041
     38 C          -7.3710    6.9032    0.7235 C.1     1  LIG1       -0.0647
     39 C          -7.8266    7.4165    1.7110 C.1     1  LIG1       -0.1138
     40 H          -8.2231    7.8578    2.5964 H       1  LIG1        0.1232
     41 S          -9.2222    4.8942   -1.1002 S.3     1  LIG1       -0.1384
     42 H          -9.2559    4.0765   -2.1553 H       1  LIG1        0.1072
@<TRIPOS>BOND
     1    37    35    1
     2    35    36   ar
     3    35    34   ar
     4    42    41    1
     5    36    32   ar
     6    11    10    1
     7    20    21    1
     8    20    14    1
     9    34    41    1
    10    34    33   ar
    11    10     3    1
    12    32    25    1
    13    32    33   ar
    14    19    18    1
    15    18    17    3
    16    26    25   ar
    17    26    22   ar
    18    14    13   ar
    19    14    15   ar
    20    25    24   ar
    21    17    13    1
    22    33    38    1
    23    13    12   ar
    24    22    15    1
    25    22    23   ar
    26    15    16   ar
    27    24    30    1
    28    24    23   ar
    29    30    31    1
    30    23    27    1
    31     3     4   ar
    32     3     2   ar
    33    12    16   ar
    34    12     4    1
    35    27    28    3
    36     4     5   ar
    37    38    39    3
    38     9     8    1
    39     8     7    3
    40     7     2    1
    41    28    29    1
    42     2     1   ar
    43    39    40    1
    44     5     1   ar
    45     1     6    1
