@<TRIPOS>MOLECULE
mol_data/opt/m06hf/geoms/mol2/12eg12eg12eg-.out
 32 34 0 0 0
SMALL
GASTEIGER

@<TRIPOS>ATOM
      1 C           0.5475    1.9825    1.2929 C.ar    1  LIG1        0.1092
      2 C           1.6141    1.8075    0.4677 C.ar    1  LIG1        0.0762
      3 C           1.8280    3.0831   -0.1805 C.ar    1  LIG1        0.0691
      4 C           0.8688    3.9080    0.3251 C.ar    1  LIG1        0.1852
      5 O           0.0972    3.2379    1.2198 O.2     1  LIG1       -0.4574
      6 H           0.0364    1.3114    1.9604 H       1  LIG1        0.1042
      7 C           2.3640    0.6069    0.2574 C.1     1  LIG1       -0.0654
      8 C           3.0009   -0.3925    0.0641 C.1     1  LIG1       -0.1138
      9 H           3.5660   -1.2790   -0.1098 H       1  LIG1        0.1232
     10 S           3.0478    3.3118   -1.4258 S.3     1  LIG1       -0.1377
     11 H           3.0830    4.6472   -1.3449 H       1  LIG1        0.1073
     12 C           0.5093    5.2959    0.0758 C.ar    1  LIG1        0.1882
     13 C           1.2516    6.4314   -0.1008 C.ar    1  LIG1        0.0874
     14 C           0.3068    7.4966   -0.3424 C.ar    1  LIG1        0.0699
     15 C          -0.9210    6.9125   -0.2610 C.ar    1  LIG1        0.1863
     16 O          -0.7965    5.5854   -0.0094 O.2     1  LIG1       -0.4461
     17 C           2.6721    6.5586   -0.0192 C.1     1  LIG1       -0.0646
     18 C           3.8673    6.6705    0.0446 C.1     1  LIG1       -0.1138
     19 H           4.9258    6.7726    0.1181 H       1  LIG1        0.1232
     20 S           0.8134    9.1306   -0.7431 S.3     1  LIG1       -0.1377
     21 H          -0.3306    9.7251   -0.3871 H       1  LIG1        0.1073
     22 C          -2.2786    7.4159   -0.4093 C.ar    1  LIG1        0.1872
     23 C          -2.8970    8.5591    0.0162 C.ar    1  LIG1        0.0866
     24 C          -4.2558    8.4758   -0.4670 C.ar    1  LIG1        0.0587
     25 C          -4.3383    7.2918   -1.1182 C.ar    1  LIG1        0.1071
     26 O          -3.1485    6.6520   -1.0882 O.2     1  LIG1       -0.4574
     27 H          -5.1427    6.7917   -1.6274 H       1  LIG1        0.1041
     28 C          -2.3456    9.5987    0.8262 C.1     1  LIG1       -0.0647
     29 C          -1.8936   10.4812    1.5067 C.1     1  LIG1       -0.1138
     30 H          -1.4944   11.2539    2.1231 H       1  LIG1        0.1232
     31 S          -5.4653    9.7251   -0.1775 S.3     1  LIG1       -0.1384
     32 H          -6.4611    9.0686   -0.7827 H       1  LIG1        0.1072
@<TRIPOS>BOND
     1    27    25    1
     2    10    11    1
     3    10     3    1
     4    25    26   ar
     5    25    24   ar
     6    26    22   ar
     7    32    31    1
     8    20    21    1
     9    20    14    1
    10    24    31    1
    11    24    23   ar
    12    22    15    1
    13    22    23   ar
    14    14    15   ar
    15    14    13   ar
    16    15    16   ar
    17     3     4   ar
    18     3     2   ar
    19     9     8    1
    20    13    17    1
    21    13    12   ar
    22    17    18    3
    23    16    12   ar
    24    23    28    1
    25    18    19    1
    26     8     7    3
    27    12     4    1
    28     7     2    1
    29     4     5   ar
    30     2     1   ar
    31    28    29    3
    32     5     1   ar
    33     1     6    1
    34    29    30    1
