@<TRIPOS>MOLECULE
mol_data/opt/m06hf/geoms/mol2/12eg12eg-12eg.out
 32 34 0 0 0
SMALL
GASTEIGER

@<TRIPOS>ATOM
      1 C           0.4761    1.7214   -0.5311 C.ar    1  LIG1        0.1092
      2 C           1.6220    1.7937    0.1974 C.ar    1  LIG1        0.0762
      3 C           1.8590    3.2023    0.4261 C.ar    1  LIG1        0.0691
      4 C           0.8316    3.8445   -0.1973 C.ar    1  LIG1        0.1852
      5 O          -0.0026    2.9434   -0.7783 O.2     1  LIG1       -0.4574
      6 H          -0.0754    0.8852   -0.9227 H       1  LIG1        0.1042
      7 C           2.4241    0.7055    0.6665 C.1     1  LIG1       -0.0654
      8 C           3.1049   -0.1969    1.0712 C.1     1  LIG1       -0.1138
      9 H           3.7085   -0.9972    1.4319 H       1  LIG1        0.1232
     10 S           3.1875    3.7731    1.4228 S.3     1  LIG1       -0.1377
     11 H           3.1245    5.0531    1.0381 H       1  LIG1        0.1073
     12 C           0.4602    5.2447   -0.3321 C.ar    1  LIG1        0.1882
     13 C           1.1889    6.3781   -0.5692 C.ar    1  LIG1        0.0874
     14 C           0.2416    7.4668   -0.5920 C.ar    1  LIG1        0.0699
     15 C          -0.9734    6.8925   -0.3686 C.ar    1  LIG1        0.1863
     16 O          -0.8388    5.5509   -0.2117 O.2     1  LIG1       -0.4461
     17 C           2.5910    6.4712   -0.8253 C.1     1  LIG1       -0.0646
     18 C           3.7709    6.5601   -1.0374 C.1     1  LIG1       -0.1138
     19 H           4.8149    6.6337   -1.2399 H       1  LIG1        0.1232
     20 S           0.7160    9.1162   -0.9566 S.3     1  LIG1       -0.1377
     21 H          -0.5248    9.6102   -0.9459 H       1  LIG1        0.1073
     22 C          -2.3235    7.4280   -0.2862 C.ar    1  LIG1        0.1872
     23 C          -2.8336    8.5554    0.2970 C.ar    1  LIG1        0.0866
     24 C          -4.2523    8.5297    0.0245 C.ar    1  LIG1        0.0587
     25 C          -4.4686    7.3925   -0.6777 C.ar    1  LIG1        0.1071
     26 O          -3.3082    6.7266   -0.8696 O.2     1  LIG1       -0.4574
     27 H          -5.3558    6.9444   -1.0879 H       1  LIG1        0.1041
     28 C          -2.1308    9.5302    1.0698 C.1     1  LIG1       -0.0647
     29 C          -1.5472   10.3570    1.7177 C.1     1  LIG1       -0.1138
     30 H          -1.0232   11.0805    2.2988 H       1  LIG1        0.1232
     31 S          -5.3633    9.7851    0.5694 S.3     1  LIG1       -0.1384
     32 H          -6.4708    9.1356    0.1958 H       1  LIG1        0.1072
@<TRIPOS>BOND
     1    19    18    1
     2    27    25    1
     3    18    17    3
     4    20    21    1
     5    20    14    1
     6     6     1    1
     7    26    25   ar
     8    26    22   ar
     9    17    13    1
    10     5     1   ar
    11     5     4   ar
    12    25    24   ar
    13    14    13   ar
    14    14    15   ar
    15    13    12   ar
    16     1     2   ar
    17    15    22    1
    18    15    16   ar
    19    12    16   ar
    20    12     4    1
    21    22    23   ar
    22     4     3   ar
    23    24    23   ar
    24    24    31    1
    25    32    31    1
    26     2     3   ar
    27     2     7    1
    28    23    28    1
    29     3    10    1
    30     7     8    3
    31    11    10    1
    32    28    29    3
    33     8     9    1
    34    29    30    1
