@<TRIPOS>MOLECULE
mol_data/opt/m06hf/geoms/mol2/12eg12eg12eg-12eg-.out
 42 45 0 0 0
SMALL
GASTEIGER

@<TRIPOS>ATOM
      1 C           0.8525    2.3145    2.0705 C.ar    1  LIG1        0.1092
      2 C           1.7698    1.9464    1.1357 C.ar    1  LIG1        0.0762
      3 C           1.8655    3.0576    0.2140 C.ar    1  LIG1        0.0691
      4 C           0.9975    3.9939    0.6899 C.ar    1  LIG1        0.1852
      5 O           0.3894    3.5412    1.8164 O.2     1  LIG1       -0.4574
      6 H           0.4638    1.8095    2.9372 H       1  LIG1        0.1042
      7 C           2.4841    0.7087    1.0593 C.1     1  LIG1       -0.0654
      8 C           3.0907   -0.3241    0.9776 C.1     1  LIG1       -0.1138
      9 H           3.6316   -1.2390    0.9030 H       1  LIG1        0.1232
     10 S           2.8542    2.9906   -1.2364 S.3     1  LIG1       -0.1377
     11 H           2.9146    4.3127   -1.4331 H       1  LIG1        0.1073
     12 C           0.5889    5.3114    0.2262 C.ar    1  LIG1        0.1882
     13 C           1.2779    6.3721   -0.2952 C.ar    1  LIG1        0.0874
     14 C           0.2939    7.3918   -0.5759 C.ar    1  LIG1        0.0699
     15 C          -0.8952    6.8622   -0.1753 C.ar    1  LIG1        0.1863
     16 O          -0.7153    5.6091    0.3094 O.2     1  LIG1       -0.4461
     17 C           2.6896    6.4783   -0.4888 C.1     1  LIG1       -0.0646
     18 C           3.8754    6.5737   -0.6628 C.1     1  LIG1       -0.1138
     19 H           4.9284    6.6636   -0.8030 H       1  LIG1        0.1232
     20 S           0.6975    8.9068   -1.3734 S.3     1  LIG1       -0.1377
     21 H          -0.3268    9.6093   -0.8749 H       1  LIG1        0.1073
     22 C          -2.2645    7.3562   -0.1923 C.ar    1  LIG1        0.1882
     23 C          -2.8189    8.5660    0.1234 C.ar    1  LIG1        0.0874
     24 C          -4.2367    8.4330   -0.1177 C.ar    1  LIG1        0.0699
     25 C          -4.4099    7.1472   -0.5351 C.ar    1  LIG1        0.1863
     26 O          -3.2201    6.4996   -0.5767 O.2     1  LIG1       -0.4461
     27 C          -2.1419    9.7171    0.6316 C.1     1  LIG1       -0.0646
     28 C          -1.5728   10.6883    1.0541 C.1     1  LIG1       -0.1138
     29 H          -1.0709   11.5430    1.4465 H       1  LIG1        0.1232
     30 S          -5.3622    9.7738    0.0462 S.3     1  LIG1       -0.1377
     31 H          -6.4421    9.0248    0.3035 H       1  LIG1        0.1073
     32 C          -5.5772    6.3816   -0.9484 C.ar    1  LIG1        0.1872
     33 C          -6.8464    6.2821   -0.4493 C.ar    1  LIG1        0.0866
     34 C          -7.5401    5.3601   -1.3181 C.ar    1  LIG1        0.0587
     35 C          -6.6287    4.9773   -2.2440 C.ar    1  LIG1        0.1071
     36 O          -5.4466    5.5938   -2.0260 O.2     1  LIG1       -0.4574
     37 H          -6.6736    4.3028   -3.0806 H       1  LIG1        0.1041
     38 C          -7.3702    6.9036    0.7256 C.1     1  LIG1       -0.0647
     39 C          -7.8244    7.4194    1.7123 C.1     1  LIG1       -0.1138
     40 H          -8.2197    7.8630    2.5972 H       1  LIG1        0.1232
     41 S          -9.2235    4.8892   -1.0899 S.3     1  LIG1       -0.1384
     42 H          -9.2587    4.0683   -2.1426 H       1  LIG1        0.1072
@<TRIPOS>BOND
     1    37    35    1
     2    35    36   ar
     3    35    34   ar
     4    42    41    1
     5    36    32   ar
     6    11    10    1
     7    20    21    1
     8    20    14    1
     9    34    41    1
    10    34    33   ar
    11    10     3    1
    12    32    25    1
    13    32    33   ar
    14    19    18    1
    15    18    17    3
    16    26    25   ar
    17    26    22   ar
    18    14    13   ar
    19    14    15   ar
    20    25    24   ar
    21    17    13    1
    22    33    38    1
    23    13    12   ar
    24    22    15    1
    25    22    23   ar
    26    15    16   ar
    27    24    30    1
    28    24    23   ar
    29    30    31    1
    30    23    27    1
    31     3     4   ar
    32     3     2   ar
    33    12    16   ar
    34    12     4    1
    35    27    28    3
    36     4     5   ar
    37    38    39    3
    38     9     8    1
    39     8     7    3
    40    28    29    1
    41     7     2    1
    42     2     1   ar
    43    39    40    1
    44     5     1   ar
    45     1     6    1
