@<TRIPOS>MOLECULE
mol_data/opt/m06hf/geoms/mol2/12eg12eg12eg12eg-.out
 42 45 0 0 0
SMALL
GASTEIGER

@<TRIPOS>ATOM
      1 C           0.7481    1.6323    0.1256 C.ar    1  LIG1        0.1092
      2 C           2.0184    1.8410   -0.3134 C.ar    1  LIG1        0.0762
      3 C           2.2003    3.2759   -0.3339 C.ar    1  LIG1        0.0691
      4 C           1.0182    3.7936    0.1039 C.ar    1  LIG1        0.1852
      5 O           0.1428    2.7944    0.3852 O.2     1  LIG1       -0.4574
      6 H           0.1842    0.7323    0.2958 H       1  LIG1        0.1042
      7 C           2.9773    0.8500   -0.6958 C.1     1  LIG1       -0.0654
      8 C           3.7900    0.0286   -1.0215 C.1     1  LIG1       -0.1138
      9 H           4.5131   -0.6985   -1.3099 H       1  LIG1        0.1232
     10 S           3.6645    4.0292   -0.9495 S.3     1  LIG1       -0.1377
     11 H           3.4879    5.2112   -0.3457 H       1  LIG1        0.1073
     12 C           0.5281    5.1523    0.2818 C.ar    1  LIG1        0.1882
     13 C           1.1022    6.2877    0.7848 C.ar    1  LIG1        0.0874
     14 C           0.1059    7.3267    0.6727 C.ar    1  LIG1        0.0699
     15 C          -0.9826    6.7215    0.1190 C.ar    1  LIG1        0.1863
     16 O          -0.7232    5.4114   -0.1199 O.2     1  LIG1       -0.4461
     17 C           2.3953    6.4138    1.3789 C.1     1  LIG1       -0.0646
     18 C           3.4816    6.5262    1.8818 C.1     1  LIG1       -0.1138
     19 H           4.4394    6.6192    2.3402 H       1  LIG1        0.1232
     20 S           0.3677    8.9483    1.2960 S.3     1  LIG1       -0.1377
     21 H          -0.6532    9.5146    0.6429 H       1  LIG1        0.1073
     22 C          -2.3162    7.1880   -0.2288 C.ar    1  LIG1        0.1882
     23 C          -2.7776    8.3443   -0.7966 C.ar    1  LIG1        0.0874
     24 C          -4.2126    8.2062   -0.8805 C.ar    1  LIG1        0.0699
     25 C          -4.4850    6.9742   -0.3667 C.ar    1  LIG1        0.1863
     26 O          -3.3420    6.3664    0.0345 O.2     1  LIG1       -0.4461
     27 C          -2.0020    9.4395   -1.2864 C.1     1  LIG1       -0.0646
     28 C          -1.3560   10.3649   -1.7003 C.1     1  LIG1       -0.1138
     29 H          -0.7809   11.1779   -2.0802 H       1  LIG1        0.1232
     30 S          -5.2417    9.4044   -1.6559 S.3     1  LIG1       -0.1377
     31 H          -6.3407    9.1245   -0.9437 H       1  LIG1        0.1073
     32 C          -5.7168    6.2175   -0.1933 C.ar    1  LIG1        0.1872
     33 C          -6.9668    6.5696    0.2347 C.ar    1  LIG1        0.0866
     34 C          -7.7579    5.3623    0.1741 C.ar    1  LIG1        0.0587
     35 C          -6.9156    4.3975   -0.2648 C.ar    1  LIG1        0.1071
     36 O          -5.6852    4.9095   -0.4888 O.2     1  LIG1       -0.4574
     37 H          -7.0440    3.3475   -0.4587 H       1  LIG1        0.1041
     38 C          -7.3963    7.8452    0.7134 C.1     1  LIG1       -0.0647
     39 C          -7.7718    8.9125    1.1214 C.1     1  LIG1       -0.1138
     40 H          -8.0984    9.8538    1.5002 H       1  LIG1        0.1232
     41 S          -9.4602    5.2939    0.6257 S.3     1  LIG1       -0.1384
     42 H          -9.5654    3.9684    0.4897 H       1  LIG1        0.1072
@<TRIPOS>BOND
     1    29    28    1
     2    28    27    3
     3    30    31    1
     4    30    24    1
     5     9     8    1
     6    27    23    1
     7     8     7    3
     8    10    11    1
     9    10     3    1
    10    24    23   ar
    11    24    25   ar
    12    23    22   ar
    13     7     2    1
    14    36    35   ar
    15    36    32   ar
    16    37    35    1
    17    25    32    1
    18    25    26   ar
    19     3     2   ar
    20     3     4   ar
    21     2     1   ar
    22    35    34   ar
    23    22    26   ar
    24    22    15    1
    25    32    33   ar
    26    16    15   ar
    27    16    12   ar
    28     4    12    1
    29     4     5   ar
    30    15    14   ar
    31     1     6    1
    32     1     5   ar
    33    34    33   ar
    34    34    41    1
    35    33    38    1
    36    12    13   ar
    37    42    41    1
    38    21    20    1
    39    14    13   ar
    40    14    20    1
    41    38    39    3
    42    13    17    1
    43    39    40    1
    44    17    18    3
    45    18    19    1
