@<TRIPOS>MOLECULE
mol_data/opt/m06hf/geoms/mol2/12eh13le13fh12hf-.out
 48 51 0 0 0
SMALL
GASTEIGER

@<TRIPOS>ATOM
      1 C           0.2178    1.5418   -0.5994 C.ar    1  LIG1        0.1099
      2 C           1.5748    1.5188   -0.5422 C.ar    1  LIG1        0.0837
      3 C           2.0010    2.8953   -0.3776 C.ar    1  LIG1        0.0881
      4 C           0.8497    3.6247   -0.3456 C.ar    1  LIG1        0.1762
      5 O          -0.2335    2.7969   -0.4782 O.2     1  LIG1       -0.4582
      6 H          -0.5118    0.7612   -0.7209 H       1  LIG1        0.1043
      7 C           2.4464    0.3886   -0.6458 C.1     1  LIG1       -0.0646
      8 C           3.2072   -0.5369   -0.7396 C.1     1  LIG1       -0.1138
      9 H           3.8720   -1.3656   -0.8211 H       1  LIG1        0.1232
     10 N           3.3156    3.3023   -0.2370 N.pl3   1  LIG1       -0.3540
     11 H           3.9800    2.6778   -0.6737 H       1  LIG1        0.1425
     12 H           3.4680    4.2855   -0.4317 H       1  LIG1        0.1425
     13 C           0.5630    5.0415   -0.2266 C.ar    1  LIG1        0.1279
     14 C           1.3783    6.1269   -0.0026 C.ar    1  LIG1        0.1643
     15 C           0.5557    7.2945    0.0137 C.ar    1  LIG1        0.0938
     16 C          -0.7452    6.8758   -0.2232 C.ar    1  LIG1        0.0863
     17 N          -0.7165    5.5217   -0.3621 N.ar    1  LIG1       -0.3465
     18 H          -1.4989    4.9522   -0.6480 H       1  LIG1        0.1662
     19 O           2.7290    6.0978    0.1926 O.3     1  LIG1       -0.4916
     20 C           3.0966    6.0802    1.5777 C.3     1  LIG1        0.0789
     21 H           2.7032    6.9685    2.0727 H       1  LIG1        0.0660
     22 H           2.7101    5.1750    2.0472 H       1  LIG1        0.0660
     23 H           4.1838    6.0815    1.6036 H       1  LIG1        0.0660
     24 C           0.9687    8.6411    0.2485 C.1     1  LIG1       -0.0638
     25 C           1.2924    9.7869    0.4364 C.1     1  LIG1       -0.1137
     26 H           1.5880   10.7923    0.6290 H       1  LIG1        0.1232
     27 C          -1.9695    7.6461   -0.3449 C.ar    1  LIG1        0.1086
     28 C          -2.1958    8.8843   -0.9123 C.ar    1  LIG1        0.1651
     29 C          -3.5922    9.1400   -0.8613 C.ar    1  LIG1        0.0961
     30 C          -4.1807    8.0506   -0.2481 C.ar    1  LIG1        0.1091
     31 N          -3.1985    7.1519    0.0404 N.ar    1  LIG1       -0.3461
     32 H          -3.3499    6.3408    0.6199 H       1  LIG1        0.1662
     33 O          -1.3286    9.7429   -1.5047 O.3     1  LIG1       -0.5030
     34 H          -0.4467    9.6584   -1.1143 H       1  LIG1        0.2923
     35 N          -4.2591   10.2828   -1.3933 N.pl3   1  LIG1       -0.3534
     36 H          -3.6512   11.0929   -1.2968 H       1  LIG1        0.1425
     37 H          -4.4342   10.1560   -2.3877 H       1  LIG1        0.1425
     38 C          -5.5609    7.7821    0.1058 C.ar    1  LIG1        0.1770
     39 C          -6.6491    8.5884    0.2569 C.ar    1  LIG1        0.1146
     40 C          -7.7185    7.6946    0.6346 C.ar    1  LIG1        0.1763
     41 C          -7.2011    6.4469    0.6999 C.ar    1  LIG1        0.1359
     42 O          -5.8830    6.4817    0.3837 O.2     1  LIG1       -0.4557
     43 H          -7.6253    5.4890    0.9427 H       1  LIG1        0.1068
     44 N          -6.7627    9.9627    0.1792 N.pl3   1  LIG1       -0.3522
     45 H          -6.0307   10.3917   -0.3892 H       1  LIG1        0.1425
     46 H          -7.7026   10.2731   -0.0257 H       1  LIG1        0.1425
     47 O          -8.9779    8.1640    0.8469 O.3     1  LIG1       -0.5024
     48 H          -9.5579    7.4618    1.1581 H       1  LIG1        0.2923
@<TRIPOS>BOND
     1    37    35    1
     2    33    34    1
     3    33    28    1
     4    35    36    1
     5    35    29    1
     6    28    29   ar
     7    28    27   ar
     8    29    30   ar
     9     9     8    1
    10     8     7    3
    11     6     1    1
    12    11    10    1
    13    18    17    1
    14     7     2    1
    15     1     2   ar
    16     1     5   ar
    17     2     3   ar
    18     5     4   ar
    19    12    10    1
    20    45    44    1
    21     3     4   ar
    22     3    10    1
    23    17    13   ar
    24    17    16   ar
    25     4    13    1
    26    27    16    1
    27    27    31   ar
    28    30    31   ar
    29    30    38    1
    30    13    14   ar
    31    16    15   ar
    32    46    44    1
    33    14    15   ar
    34    14    19    1
    35    15    24    1
    36    31    32    1
    37    38    39   ar
    38    38    42   ar
    39    44    39    1
    40    19    20    1
    41    24    25    3
    42    39    40   ar
    43    42    41   ar
    44    25    26    1
    45    40    41   ar
    46    40    47    1
    47    41    43    1
    48    47    48    1
    49    20    23    1
    50    20    22    1
    51    20    21    1
