@<TRIPOS>MOLECULE
mol_data/opt/m06hf/geoms/mol2/12eh6fh13hf-13hf-.out
 47 50 0 0 0
SMALL
GASTEIGER

@<TRIPOS>ATOM
      1 C           0.6213    1.6382    0.9275 C.ar    1  LIG1        0.1098
      2 C           1.6733    1.6359    0.0705 C.ar    1  LIG1        0.0836
      3 C           1.8534    3.0098   -0.3508 C.ar    1  LIG1        0.0867
      4 C           0.9015    3.7319    0.3001 C.ar    1  LIG1        0.1617
      5 O           0.1450    2.8850    1.0707 O.2     1  LIG1       -0.4596
      6 H           0.1306    0.8539    1.4759 H       1  LIG1        0.1043
      7 C           2.4610    0.5255   -0.3708 C.1     1  LIG1       -0.0646
      8 C           3.1448   -0.3784   -0.7701 C.1     1  LIG1       -0.1138
      9 H           3.7468   -1.1879   -1.1132 H       1  LIG1        0.1232
     10 N           2.8378    3.4639   -1.2344 N.pl3   1  LIG1       -0.3541
     11 H           3.3194    2.6932   -1.6834 H       1  LIG1        0.1425
     12 H           2.4738    4.1134   -1.9236 H       1  LIG1        0.1425
     13 C          -0.7157    5.6574    0.4900 C.ar    1  LIG1        0.2240
     14 C           0.5915    5.1623    0.3054 C.ar    1  LIG1        0.0822
     15 C           1.5964    6.0942    0.0495 C.ar    1  LIG1       -0.0230
     16 C           1.3065    7.4515   -0.0031 C.ar    1  LIG1        0.0533
     17 C          -0.0137    7.8429    0.2843 C.ar    1  LIG1        0.1134
     18 N          -0.9863    6.9428    0.4799 N.ar    1  LIG1       -0.2090
     19 H           2.6077    5.7409   -0.1266 H       1  LIG1        0.0645
     20 O          -1.7766    4.8444    0.6848 O.3     1  LIG1       -0.4919
     21 H          -1.4844    3.9398    0.8488 H       1  LIG1        0.2938
     22 N           2.2788    8.4164   -0.3446 N.pl3   1  LIG1       -0.3563
     23 H           3.1185    8.0028   -0.7309 H       1  LIG1        0.1424
     24 H           1.8941    9.1098   -0.9833 H       1  LIG1        0.1424
     25 C          -0.4385    9.2411    0.3010 C.ar    1  LIG1        0.0920
     26 C           0.1837   10.4467    0.6241 C.ar    1  LIG1        0.0945
     27 C          -0.7991   11.4631    0.4601 C.ar    1  LIG1        0.1650
     28 C          -1.9815   10.8574    0.0829 C.ar    1  LIG1        0.1092
     29 N          -1.7522    9.5156   -0.0034 N.ar    1  LIG1       -0.3473
     30 H          -2.3862    8.7929   -0.3047 H       1  LIG1        0.1662
     31 N           1.4301   10.7098    1.1773 N.pl3   1  LIG1       -0.3534
     32 H           2.1552   10.0389    0.9511 H       1  LIG1        0.1425
     33 H           1.6899   11.6829    1.0853 H       1  LIG1        0.1425
     34 O          -0.5523   12.7753    0.6927 O.3     1  LIG1       -0.5030
     35 H          -1.1991   13.3072    0.1556 H       1  LIG1        0.2923
     36 C          -3.2689   11.4919   -0.1540 C.ar    1  LIG1        0.0912
     37 C          -3.5257   12.7843   -0.5579 C.ar    1  LIG1        0.0938
     38 C          -4.9376   12.9375   -0.6008 C.ar    1  LIG1        0.1554
     39 C          -5.5036   11.7439   -0.2313 C.ar    1  LIG1        0.0461
     40 N          -4.4710   10.8743    0.0295 N.ar    1  LIG1       -0.3549
     41 H          -4.5756    9.9602    0.4386 H       1  LIG1        0.1655
     42 H          -6.5339   11.4503   -0.1365 H       1  LIG1        0.0845
     43 N          -2.5370   13.7695   -0.8663 N.pl3   1  LIG1       -0.3535
     44 H          -2.2857   13.7423   -1.8522 H       1  LIG1        0.1425
     45 H          -2.9064   14.6958   -0.6648 H       1  LIG1        0.1425
     46 O          -5.5237   14.1140   -0.9806 O.3     1  LIG1       -0.5035
     47 H          -6.4210   14.1638   -0.6367 H       1  LIG1        0.2923
@<TRIPOS>BOND
     1    12    10    1
     2    44    43    1
     3    11    10    1
     4    10     3    1
     5     9     8    1
     6    24    22    1
     7    46    47    1
     8    46    38    1
     9    43    45    1
    10    43    37    1
    11     8     7    3
    12    23    22    1
    13    38    37   ar
    14    38    39   ar
    15    37    36   ar
    16     7     2    1
    17     3     2   ar
    18     3     4   ar
    19    22    16    1
    20    30    29    1
    21    39    42    1
    22    39    40   ar
    23    36    40   ar
    24    36    28    1
    25    19    15    1
    26    29    28   ar
    27    29    25   ar
    28    16    15   ar
    29    16    17   ar
    30    40    41    1
    31    15    14   ar
    32     2     1   ar
    33    28    27   ar
    34    35    34    1
    35    17    25    1
    36    17    18   ar
    37     4    14    1
    38     4     5   ar
    39    25    26   ar
    40    14    13   ar
    41    27    26   ar
    42    27    34    1
    43    18    13   ar
    44    13    20    1
    45    26    31    1
    46    20    21    1
    47     1     5   ar
    48     1     6    1
    49    32    31    1
    50    33    31    1
