@<TRIPOS>MOLECULE
mol_data/opt/m06hf/geoms/mol2/12eh12fh-4hf12ll.out
 51 54 0 0 0
SMALL
GASTEIGER

@<TRIPOS>ATOM
      1 C           0.5962    1.5160   -0.2715 C.ar    1  LIG1        0.1099
      2 C           1.9498    1.6281   -0.3499 C.ar    1  LIG1        0.0837
      3 C           2.2423    3.0429   -0.2498 C.ar    1  LIG1        0.0898
      4 C           1.0253    3.6507   -0.1187 C.ar    1  LIG1        0.1951
      5 O           0.0309    2.7146   -0.1265 O.2     1  LIG1       -0.4565
      6 H          -0.0555    0.6609   -0.3093 H       1  LIG1        0.1043
      7 C           2.9181    0.5892   -0.5232 C.1     1  LIG1       -0.0646
      8 C           3.7547   -0.2596   -0.6785 C.1     1  LIG1       -0.1138
      9 H           4.4862   -1.0224   -0.8139 H       1  LIG1        0.1232
     10 N           3.5125    3.5789   -0.2433 N.pl3   1  LIG1       -0.3540
     11 H           4.1995    3.0304   -0.7402 H       1  LIG1        0.1425
     12 H           3.5689    4.5794   -0.3818 H       1  LIG1        0.1425
     13 C           0.6400    5.0412    0.0074 C.ar    1  LIG1        0.2154
     14 C           1.3582    6.1701    0.2583 C.ar    1  LIG1        0.1877
     15 C           0.4422    7.2783    0.2320 C.ar    1  LIG1        0.1139
     16 C          -0.7815    6.7285   -0.0462 C.ar    1  LIG1        0.1620
     17 O          -0.6514    5.3675   -0.1712 O.2     1  LIG1       -0.4459
     18 O           2.7099    6.2903    0.4848 O.3     1  LIG1       -0.5019
     19 H           2.8857    6.1914    1.4295 H       1  LIG1        0.2924
     20 N           0.8031    8.5727    0.5689 N.pl3   1  LIG1       -0.3522
     21 H           1.7783    8.7617    0.3741 H       1  LIG1        0.1425
     22 H           0.1660    9.2733    0.1929 H       1  LIG1        0.1425
     23 C          -2.4268    8.5344   -0.5991 C.ar    1  LIG1        0.0363
     24 C          -3.7340    9.0072   -0.5553 C.ar    1  LIG1       -0.0260
     25 C          -2.1445    7.2623   -0.0809 C.ar    1  LIG1        0.0433
     26 C          -4.7778    8.2404   -0.0339 C.ar    1  LIG1        0.0642
     27 H          -3.9659    9.9915   -0.9443 H       1  LIG1        0.0644
     28 C          -3.1924    6.4782    0.4070 C.ar    1  LIG1       -0.0070
     29 C          -4.4967    6.9506    0.4410 C.ar    1  LIG1        0.1284
     30 H          -2.9633    5.4891    0.7871 H       1  LIG1        0.0662
     31 N          -1.3835    9.3146   -1.1628 N.pl3   1  LIG1       -0.3574
     32 H          -0.8091    8.7510   -1.7866 H       1  LIG1        0.1423
     33 H          -1.7429   10.1204   -1.6610 H       1  LIG1        0.1423
     34 O          -5.5137    6.2044    0.9520 O.3     1  LIG1       -0.5060
     35 H          -5.1767    5.3559    1.2570 H       1  LIG1        0.2922
     36 C          -6.1227    8.8286    0.0066 C.ar    1  LIG1        0.1836
     37 C          -6.5142   10.1351    0.0258 C.ar    1  LIG1        0.2079
     38 C          -7.9534   10.1320    0.0722 C.ar    1  LIG1        0.2003
     39 C          -8.3195    8.8272    0.0576 C.ar    1  LIG1        0.1379
     40 O          -7.2222    8.0437    0.0188 O.2     1  LIG1       -0.4553
     41 H          -9.2768    8.3403    0.0873 H       1  LIG1        0.1069
     42 O          -5.7217   11.2453    0.0173 O.3     1  LIG1       -0.4884
     43 C          -5.6824   11.8922    1.2936 C.3     1  LIG1        0.0791
     44 H          -5.0728   12.7838    1.1674 H       1  LIG1        0.0660
     45 H          -6.6947   12.1624    1.5996 H       1  LIG1        0.0660
     46 H          -5.2328   11.2226    2.0287 H       1  LIG1        0.0660
     47 O          -8.7575   11.2266    0.1518 O.3     1  LIG1       -0.4888
     48 C          -8.6580   12.0751   -0.9931 C.3     1  LIG1        0.0791
     49 H          -9.3160   12.9197   -0.8042 H       1  LIG1        0.0660
     50 H          -7.6286   12.4145   -1.1205 H       1  LIG1        0.0660
     51 H          -8.9835   11.5338   -1.8837 H       1  LIG1        0.0660
@<TRIPOS>BOND
     1    51    48    1
     2    32    31    1
     3    33    31    1
     4    31    23    1
     5    50    48    1
     6    48    49    1
     7    48    47    1
     8    27    24    1
     9     9     8    1
    10    11    10    1
    11     8     7    3
    12    23    24   ar
    13    23    25   ar
    14    24    26   ar
    15     7     2    1
    16    12    10    1
    17     2     1   ar
    18     2     3   ar
    19     6     1    1
    20     1     5   ar
    21     3    10    1
    22     3     4   ar
    23    17    16   ar
    24    17    13   ar
    25     5     4   ar
    26     4    13    1
    27    25    16    1
    28    25    28   ar
    29    16    15   ar
    30    26    36    1
    31    26    29   ar
    32    36    40   ar
    33    36    37   ar
    34    13    14   ar
    35    42    37    1
    36    42    43    1
    37    40    39   ar
    38    37    38   ar
    39    39    38   ar
    40    39    41    1
    41    38    47    1
    42    22    20    1
    43    15    14   ar
    44    15    20    1
    45    14    18    1
    46    21    20    1
    47    28    29   ar
    48    28    30    1
    49    29    34    1
    50    18    19    1
    51    34    35    1
    52    44    43    1
    53    43    45    1
    54    43    46    1
