@<TRIPOS>MOLECULE
mol_data/opt/m06hf/geoms/mol2/12ei12ei-12ei-12ei.out
 50 53 0 0 0
SMALL
GASTEIGER

@<TRIPOS>ATOM
      1 C          -0.0510    1.7057   -0.0903 C.ar    1  LIG1        0.1083
      2 C           1.2120    1.6872   -0.5978 C.ar    1  LIG1        0.0659
      3 C           1.6684    3.0595   -0.6190 C.ar    1  LIG1        0.0138
      4 C           0.6198    3.7711   -0.1187 C.ar    1  LIG1        0.1750
      5 O          -0.4147    2.9604    0.2015 O.2     1  LIG1       -0.4583
      6 H          -0.7660    0.9269    0.1069 H       1  LIG1        0.1042
      7 C           1.9499    0.5370   -1.0295 C.1     1  LIG1       -0.0662
      8 C           2.5828   -0.4149   -1.3996 C.1     1  LIG1       -0.1138
      9 H           3.1379   -1.2615   -1.7306 H       1  LIG1        0.1232
     10 C           3.0041    3.5496   -1.1167 C.3     1  LIG1       -0.0348
     11 H           3.4317    4.2795   -0.4308 H       1  LIG1        0.0279
     12 H           2.8875    4.0274   -2.0904 H       1  LIG1        0.0279
     13 H           3.6758    2.6985   -1.2207 H       1  LIG1        0.0279
     14 C           0.4542    5.1914    0.1138 C.ar    1  LIG1        0.1865
     15 C          -0.5751    5.9604    0.5867 C.ar    1  LIG1        0.0771
     16 C          -0.0923    7.3231    0.5942 C.ar    1  LIG1        0.0145
     17 C           1.1760    7.2505    0.1096 C.ar    1  LIG1        0.1761
     18 O           1.5092    5.9659   -0.1794 O.2     1  LIG1       -0.4470
     19 C          -1.8669    5.5312    1.0250 C.1     1  LIG1       -0.0655
     20 C          -2.9588    5.2060    1.4060 C.1     1  LIG1       -0.1138
     21 H          -3.9239    4.9053    1.7413 H       1  LIG1        0.1232
     22 C          -0.8545    8.5190    1.0928 C.3     1  LIG1       -0.0348
     23 H          -1.4114    8.2377    1.9865 H       1  LIG1        0.0279
     24 H          -1.5581    8.8612    0.3326 H       1  LIG1        0.0279
     25 H          -0.1705    9.3335    1.3253 H       1  LIG1        0.0279
     26 C           2.2093    8.2460   -0.1176 C.ar    1  LIG1        0.1866
     27 C           2.1793    9.5413   -0.5597 C.ar    1  LIG1        0.0771
     28 C           3.5443   10.0109   -0.5537 C.ar    1  LIG1        0.0145
     29 C           4.2721    8.9429   -0.1217 C.ar    1  LIG1        0.1760
     30 O           3.4762    7.8843    0.1438 O.2     1  LIG1       -0.4470
     31 C           1.0346   10.2754   -1.0056 C.1     1  LIG1       -0.0655
     32 C           0.0912   10.9112   -1.3940 C.1     1  LIG1       -0.1138
     33 H          -0.7478   11.4661   -1.7452 H       1  LIG1        0.1232
     34 C           4.0215   11.3804   -0.9612 C.3     1  LIG1       -0.0348
     35 H           3.1575   12.0015   -1.1924 H       1  LIG1        0.0279
     36 H           4.6614   11.3133   -1.8409 H       1  LIG1        0.0279
     37 H           4.5927   11.8387   -0.1544 H       1  LIG1        0.0279
     38 C           5.6945    8.7644    0.0915 C.ar    1  LIG1        0.1855
     39 C           6.4398    7.7303    0.5841 C.ar    1  LIG1        0.0763
     40 C           7.8178    8.1757    0.5409 C.ar    1  LIG1        0.0034
     41 C           7.7720    9.4260    0.0318 C.ar    1  LIG1        0.0968
     42 O           6.4953    9.7922   -0.2442 O.2     1  LIG1       -0.4583
     43 H           8.5350   10.1526   -0.1865 H       1  LIG1        0.1032
     44 C           5.9915    6.4597    1.0653 C.1     1  LIG1       -0.0655
     45 C           5.6635    5.3826    1.4857 C.1     1  LIG1       -0.1138
     46 H           5.3612    4.4325    1.8617 H       1  LIG1        0.1232
     47 C           9.0111    7.3743    0.9837 C.3     1  LIG1       -0.0355
     48 H           9.9266    7.9465    0.8405 H       1  LIG1        0.0279
     49 H           9.0728    6.4506    0.4075 H       1  LIG1        0.0279
     50 H           8.9132    7.1130    2.0378 H       1  LIG1        0.0279
@<TRIPOS>BOND
     1    12    10    1
     2    36    34    1
     3    33    32    1
     4     9     8    1
     5     8     7    3
     6    32    31    3
     7    13    10    1
     8    35    34    1
     9    10     3    1
    10    10    11    1
    11     7     2    1
    12    31    27    1
    13    34    28    1
    14    34    37    1
    15     3     2   ar
    16     3     4   ar
    17     2     1   ar
    18    27    28   ar
    19    27    26   ar
    20    28    29   ar
    21    42    41   ar
    22    42    38   ar
    23    43    41    1
    24    18    17   ar
    25    18    14   ar
    26    29    38    1
    27    29    30   ar
    28     4    14    1
    29     4     5   ar
    30    26    17    1
    31    26    30   ar
    32     1     6    1
    33     1     5   ar
    34    41    40   ar
    35    38    39   ar
    36    17    16   ar
    37    14    15   ar
    38    24    22    1
    39    49    47    1
    40    40    39   ar
    41    40    47    1
    42    39    44    1
    43    15    16   ar
    44    15    19    1
    45    16    22    1
    46    48    47    1
    47    47    50    1
    48    19    20    3
    49    44    45    3
    50    22    25    1
    51    22    23    1
    52    20    21    1
    53    45    46    1
