@<TRIPOS>MOLECULE
mol_data/opt/m06hf/geoms/mol2/12ei12ei12ei-12ei-.out
 50 53 0 0 0
SMALL
GASTEIGER

@<TRIPOS>ATOM
      1 C           0.4786    1.8024   -1.2318 C.ar    1  LIG1        0.1083
      2 C           1.6462    1.7405   -0.5361 C.ar    1  LIG1        0.0659
      3 C           1.8901    3.0729   -0.0283 C.ar    1  LIG1        0.0138
      4 C           0.8438    3.8119   -0.4850 C.ar    1  LIG1        0.1750
      5 O          -0.0127    3.0464   -1.2075 O.2     1  LIG1       -0.4583
      6 H          -0.0872    1.0592   -1.7648 H       1  LIG1        0.1042
      7 C           2.4644    0.5843   -0.3200 C.1     1  LIG1       -0.0662
      8 C           3.1614   -0.3747   -0.1256 C.1     1  LIG1       -0.1138
      9 H           3.7750   -1.2286    0.0452 H       1  LIG1        0.1232
     10 C           3.0396    3.4865    0.8480 C.3     1  LIG1       -0.0348
     11 H           2.8058    4.4174    1.3620 H       1  LIG1        0.0279
     12 H           3.9366    3.6384    0.2465 H       1  LIG1        0.0279
     13 H           3.2332    2.7001    1.5776 H       1  LIG1        0.0279
     14 C           0.5137    5.2212   -0.3377 C.ar    1  LIG1        0.1865
     15 C           1.2859    6.3502   -0.3471 C.ar    1  LIG1        0.0771
     16 C           0.3937    7.4639   -0.1294 C.ar    1  LIG1        0.0145
     17 C          -0.8418    6.8982   -0.0263 C.ar    1  LIG1        0.1761
     18 O          -0.7731    5.5521   -0.1471 O.2     1  LIG1       -0.4470
     19 C           2.6941    6.4409   -0.5847 C.1     1  LIG1       -0.0655
     20 C           3.8735    6.5511   -0.7881 C.1     1  LIG1       -0.1138
     21 H           4.9173    6.6489   -0.9770 H       1  LIG1        0.1232
     22 C           0.8136    8.9081   -0.0610 C.3     1  LIG1       -0.0348
     23 H          -0.0267    9.5421    0.2092 H       1  LIG1        0.0279
     24 H           1.2050    9.2186   -1.0310 H       1  LIG1        0.0279
     25 H           1.6090    9.0153    0.6773 H       1  LIG1        0.0279
     26 C          -2.1631    7.4615    0.1775 C.ar    1  LIG1        0.1866
     27 C          -3.3822    6.9000    0.4430 C.ar    1  LIG1        0.0771
     28 C          -4.3180    7.9960    0.5565 C.ar    1  LIG1        0.0145
     29 C          -3.5798    9.1149    0.3319 C.ar    1  LIG1        0.1760
     30 O          -2.2786    8.7969    0.1045 O.2     1  LIG1       -0.4470
     31 C          -3.6950    5.5160    0.6205 C.1     1  LIG1       -0.0655
     32 C          -3.9909    4.3629    0.7796 C.1     1  LIG1       -0.1138
     33 H          -4.2396    3.3364    0.9163 H       1  LIG1        0.1232
     34 C          -5.7755    7.8696    0.9024 C.3     1  LIG1       -0.0348
     35 H          -5.8971    7.0779    1.6415 H       1  LIG1        0.0279
     36 H          -6.3538    7.6152    0.0133 H       1  LIG1        0.0279
     37 H          -6.1503    8.8103    1.3024 H       1  LIG1        0.0279
     38 C          -3.9180   10.5288    0.2926 C.ar    1  LIG1        0.1855
     39 C          -5.0171   11.2031   -0.1599 C.ar    1  LIG1        0.0763
     40 C          -4.7631   12.6065    0.0888 C.ar    1  LIG1        0.0034
     41 C          -3.5330   12.6447    0.6490 C.ar    1  LIG1        0.0968
     42 O          -3.0166   11.4005    0.7793 O.2     1  LIG1       -0.4583
     43 H          -2.9165   13.4556    0.9953 H       1  LIG1        0.1032
     44 C          -6.1695   10.6615   -0.8126 C.1     1  LIG1       -0.0655
     45 C          -7.1474   10.2400   -1.3705 C.1     1  LIG1       -0.1138
     46 H          -8.0102    9.8620   -1.8681 H       1  LIG1        0.1232
     47 C          -5.6921   13.7419   -0.2432 C.3     1  LIG1       -0.0355
     48 H          -6.6340   13.6218    0.2928 H       1  LIG1        0.0279
     49 H          -5.9058   13.7478   -1.3125 H       1  LIG1        0.0279
     50 H          -5.2419   14.6935    0.0360 H       1  LIG1        0.0279
@<TRIPOS>BOND
     1    46    45    1
     2     6     1    1
     3    45    44    3
     4    49    47    1
     5     1     5   ar
     6     1     2   ar
     7     5     4   ar
     8    24    22    1
     9    21    20    1
    10    44    39    1
    11    20    19    3
    12    19    15    1
    13     2     7    1
    14     2     3   ar
    15     4    14    1
    16     4     3   ar
    17    15    14   ar
    18    15    16   ar
    19    14    18   ar
    20     7     8    3
    21    47    50    1
    22    47    40    1
    23    47    48    1
    24    39    40   ar
    25    39    38   ar
    26    18    17   ar
    27    16    22    1
    28    16    17   ar
    29     8     9    1
    30    22    23    1
    31    22    25    1
    32     3    10    1
    33    17    26    1
    34    36    34    1
    35    40    41   ar
    36    30    26   ar
    37    30    29   ar
    38    26    27   ar
    39    12    10    1
    40    38    29    1
    41    38    42   ar
    42    29    28   ar
    43    27    28   ar
    44    27    31    1
    45    28    34    1
    46    31    32    3
    47    41    42   ar
    48    41    43    1
    49    32    33    1
    50    10    11    1
    51    10    13    1
    52    34    37    1
    53    34    35    1
