@<TRIPOS>MOLECULE
mol_data/opt/m06hf/geoms/mol2/12ei12ei12ei-12ei.out
 50 53 0 0 0
SMALL
GASTEIGER

@<TRIPOS>ATOM
      1 C           0.4775    1.6550   -0.6554 C.ar    1  LIG1        0.1083
      2 C           1.6630    1.7168    0.0091 C.ar    1  LIG1        0.0659
      3 C           1.9114    3.1175    0.2724 C.ar    1  LIG1        0.0138
      4 C           0.8486    3.7646   -0.2764 C.ar    1  LIG1        0.1750
      5 O          -0.0212    2.8836   -0.8327 O.2     1  LIG1       -0.4583
      6 H          -0.0955    0.8299   -1.0402 H       1  LIG1        0.1042
      7 C           2.4984    0.6196    0.3985 C.1     1  LIG1       -0.0662
      8 C           3.2151   -0.2828    0.7384 C.1     1  LIG1       -0.1138
      9 H           3.8499   -1.0837    1.0387 H       1  LIG1        0.1232
     10 C           3.0791    3.6770    1.0364 C.3     1  LIG1       -0.0348
     11 H           2.8417    4.6703    1.4138 H       1  LIG1        0.0279
     12 H           3.9546    3.7509    0.3904 H       1  LIG1        0.0279
     13 H           3.3101    3.0126    1.8692 H       1  LIG1        0.0279
     14 C           0.5065    5.1764   -0.3567 C.ar    1  LIG1        0.1865
     15 C           1.2642    6.2973   -0.5610 C.ar    1  LIG1        0.0771
     16 C           0.3600    7.4218   -0.5152 C.ar    1  LIG1        0.0145
     17 C          -0.8662    6.8687   -0.2979 C.ar    1  LIG1        0.1761
     18 O          -0.7807    5.5215   -0.1993 O.2     1  LIG1       -0.4470
     19 C           2.6658    6.3643   -0.8419 C.1     1  LIG1       -0.0655
     20 C           3.8388    6.4533   -1.0892 C.1     1  LIG1       -0.1138
     21 H           4.8768    6.5306   -1.3163 H       1  LIG1        0.1232
     22 C           0.7539    8.8604   -0.7101 C.3     1  LIG1       -0.0348
     23 H          -0.1244    9.4999   -0.7432 H       1  LIG1        0.0279
     24 H           1.3178    8.9541   -1.6389 H       1  LIG1        0.0279
     25 H           1.3972    9.1752    0.1141 H       1  LIG1        0.0279
     26 C          -2.1966    7.4320   -0.1684 C.ar    1  LIG1        0.1866
     27 C          -3.4371    6.8552   -0.1079 C.ar    1  LIG1        0.0771
     28 C          -4.3842    7.9371    0.0196 C.ar    1  LIG1        0.0145
     29 C          -3.6257    9.0679    0.0208 C.ar    1  LIG1        0.1760
     30 O          -2.3082    8.7690   -0.0887 O.2     1  LIG1       -0.4470
     31 C          -3.7635    5.4637   -0.1610 C.1     1  LIG1       -0.0655
     32 C          -4.0714    4.3034   -0.2012 C.1     1  LIG1       -0.1138
     33 H          -4.3261    3.2698   -0.2384 H       1  LIG1        0.1232
     34 C          -5.8802    7.7924    0.1160 C.3     1  LIG1       -0.0348
     35 H          -6.1185    6.7587    0.3626 H       1  LIG1        0.0279
     36 H          -6.3459    8.0462   -0.8369 H       1  LIG1        0.0279
     37 H          -6.2784    8.4548    0.8827 H       1  LIG1        0.0279
     38 C          -3.9838   10.4684    0.1187 C.ar    1  LIG1        0.1855
     39 C          -3.2564   11.6189    0.2442 C.ar    1  LIG1        0.0763
     40 C          -4.2194   12.7004    0.2896 C.ar    1  LIG1        0.0034
     41 C          -5.4276   12.1044    0.1903 C.ar    1  LIG1        0.0968
     42 O          -5.2974   10.7584    0.0858 O.2     1  LIG1       -0.4583
     43 H          -6.4323   12.4894    0.1787 H       1  LIG1        0.1032
     44 C          -1.8379   11.7760    0.3379 C.1     1  LIG1       -0.0655
     45 C          -0.6550   11.9725    0.4299 C.1     1  LIG1       -0.1138
     46 H           0.3945   12.1368    0.5153 H       1  LIG1        0.1232
     47 C          -3.8903   14.1619    0.4243 C.3     1  LIG1       -0.0355
     48 H          -4.8035   14.7553    0.4379 H       1  LIG1        0.0279
     49 H          -3.2682   14.4816   -0.4122 H       1  LIG1        0.0279
     50 H          -3.3374   14.3344    1.3479 H       1  LIG1        0.0279
@<TRIPOS>BOND
     1    24    22    1
     2    21    20    1
     3    20    19    3
     4     6     1    1
     5    19    15    1
     6    36    34    1
     7     5     1   ar
     8     5     4   ar
     9    23    22    1
    10    22    16    1
    11    22    25    1
    12     1     2   ar
    13    15    16   ar
    14    15    14   ar
    15    16    17   ar
    16    49    47    1
    17    14     4    1
    18    14    18   ar
    19    17    18   ar
    20    17    26    1
    21     4     3   ar
    22    33    32    1
    23    32    31    3
    24    26    27   ar
    25    26    30   ar
    26    31    27    1
    27    27    28   ar
    28    30    29   ar
    29     2     3   ar
    30     2     7    1
    31    28    29   ar
    32    28    34    1
    33    29    38    1
    34    42    38   ar
    35    42    41   ar
    36    34    35    1
    37    34    37    1
    38    38    39   ar
    39    43    41    1
    40    41    40   ar
    41    39    40   ar
    42    39    44    1
    43     3    10    1
    44    40    47    1
    45    44    45    3
    46    12    10    1
    47     7     8    3
    48    47    48    1
    49    47    50    1
    50    45    46    1
    51     8     9    1
    52    10    11    1
    53    10    13    1
