@<TRIPOS>MOLECULE
mol_data/opt/m06hf/geoms/mol2/12ei12ei-12ei12ei-.out
 50 53 0 0 0
SMALL
GASTEIGER

@<TRIPOS>ATOM
      1 C           6.0341    0.9248    0.0009 C.ar    1  LIG1        0.1083
      2 C           5.9312   -0.3858    0.3508 C.ar    1  LIG1        0.0659
      3 C           4.5193   -0.6999    0.3614 C.ar    1  LIG1        0.0138
      4 C           3.9076    0.4659    0.0114 C.ar    1  LIG1        0.1750
      5 O           4.8189    1.4448   -0.2071 O.2     1  LIG1       -0.4583
      6 H           6.8786    1.5775   -0.1312 H       1  LIG1        0.1042
      7 C           6.9999   -1.2888    0.6595 C.1     1  LIG1       -0.0662
      8 C           7.8807   -2.0612    0.9255 C.1     1  LIG1       -0.1138
      9 H           8.6645   -2.7423    1.1630 H       1  LIG1        0.1232
     10 C           3.9329   -2.0399    0.7130 C.3     1  LIG1       -0.0348
     11 H           2.8480   -2.0201    0.6460 H       1  LIG1        0.0279
     12 H           4.2374   -2.3119    1.7247 H       1  LIG1        0.0279
     13 H           4.3238   -2.7947    0.0279 H       1  LIG1        0.0279
     14 C           2.5159    0.8444   -0.1499 C.ar    1  LIG1        0.1865
     15 C           1.9023    2.0555   -0.3218 C.ar    1  LIG1        0.0771
     16 C           0.4857    1.7882   -0.4042 C.ar    1  LIG1        0.0145
     17 C           0.3746    0.4388   -0.2697 C.ar    1  LIG1        0.1761
     18 O           1.5964   -0.1336   -0.1200 O.2     1  LIG1       -0.4470
     19 C           2.5013    3.3523   -0.3990 C.1     1  LIG1       -0.0655
     20 C           2.9596    4.4609   -0.4649 C.1     1  LIG1       -0.1138
     21 H           3.3779    5.4387   -0.5222 H       1  LIG1        0.1232
     22 C          -0.5797    2.8296   -0.6119 C.3     1  LIG1       -0.0348
     23 H          -0.3773    3.3698   -1.5376 H       1  LIG1        0.0279
     24 H          -0.5491    3.5442    0.2129 H       1  LIG1        0.0279
     25 H          -1.5652    2.3724   -0.6557 H       1  LIG1        0.0279
     26 C          -0.7606   -0.4624   -0.2634 C.ar    1  LIG1        0.1866
     27 C          -0.8651   -1.8196   -0.4137 C.ar    1  LIG1        0.0771
     28 C          -2.2696   -2.1366   -0.3091 C.ar    1  LIG1        0.0145
     29 C          -2.8825   -0.9382   -0.1068 C.ar    1  LIG1        0.1760
     30 O          -1.9794    0.0709   -0.0761 O.2     1  LIG1       -0.4470
     31 C           0.1846   -2.7596   -0.6615 C.1     1  LIG1       -0.0655
     32 C           1.0315   -3.5834   -0.8841 C.1     1  LIG1       -0.1138
     33 H           1.7900   -4.3032   -1.0895 H       1  LIG1        0.1232
     34 C          -2.8822   -3.5094   -0.4086 C.3     1  LIG1       -0.0348
     35 H          -3.6286   -3.5349   -1.2018 H       1  LIG1        0.0279
     36 H          -3.3680   -3.7760    0.5299 H       1  LIG1        0.0279
     37 H          -2.0966   -4.2312   -0.6264 H       1  LIG1        0.0279
     38 C          -4.2768   -0.5917    0.0773 C.ar    1  LIG1        0.1855
     39 C          -4.9293    0.5832    0.3274 C.ar    1  LIG1        0.0763
     40 C          -6.3374    0.2508    0.4069 C.ar    1  LIG1        0.0034
     41 C          -6.3999   -1.0833    0.2016 C.ar    1  LIG1        0.0968
     42 O          -5.1625   -1.6014    0.0012 O.2     1  LIG1       -0.4583
     43 H          -7.2192   -1.7797    0.1686 H       1  LIG1        0.1032
     44 C          -4.3777    1.8921    0.4961 C.1     1  LIG1       -0.0655
     45 C          -3.9704    3.0124    0.6526 C.1     1  LIG1       -0.1138
     46 H          -3.6005    4.0012    0.7965 H       1  LIG1        0.1232
     47 C          -7.4530    1.2249    0.6696 C.3     1  LIG1       -0.0355
     48 H          -7.4572    2.0006   -0.0969 H       1  LIG1        0.0279
     49 H          -7.3078    1.7029    1.6387 H       1  LIG1        0.0279
     50 H          -8.4138    0.7123    0.6645 H       1  LIG1        0.0279
@<TRIPOS>BOND
     1    23    22    1
     2    35    34    1
     3    33    32    1
     4    32    31    3
     5    31    27    1
     6    25    22    1
     7    37    34    1
     8    22    16    1
     9    22    24    1
    10    21    20    1
    11    20    19    3
    12    27    28   ar
    13    27    26   ar
    14    34    28    1
    15    34    36    1
    16    16    15   ar
    17    16    17   ar
    18    19    15    1
    19    15    14   ar
    20    28    29   ar
    21    17    26    1
    22    17    18   ar
    23    26    30   ar
    24     5     1   ar
    25     5     4   ar
    26    14    18   ar
    27    14     4    1
    28     6     1    1
    29    29    30   ar
    30    29    38    1
    31    48    47    1
    32     1     2   ar
    33    42    38   ar
    34    42    41   ar
    35     4     3   ar
    36    13    10    1
    37    38    39   ar
    38    43    41    1
    39    41    40   ar
    40    39    40   ar
    41    39    44    1
    42     2     3   ar
    43     2     7    1
    44     3    10    1
    45    40    47    1
    46    44    45    3
    47    11    10    1
    48    45    46    1
    49     7     8    3
    50    50    47    1
    51    47    49    1
    52    10    12    1
    53     8     9    1
