@<TRIPOS>MOLECULE
mol_data/opt/m06hf/geoms/mol2/12ei12ei-.out
 26 27 0 0 0
SMALL
GASTEIGER

@<TRIPOS>ATOM
      1 C           0.1718    1.7868   -0.0489 C.ar    1  LIG1        0.1083
      2 C           1.5324    1.7758   -0.0081 C.ar    1  LIG1        0.0659
      3 C           1.9543    3.1587    0.0168 C.ar    1  LIG1        0.0138
      4 C           0.7930    3.8691   -0.0132 C.ar    1  LIG1        0.1750
      5 O          -0.2805    3.0468   -0.0524 O.2     1  LIG1       -0.4583
      6 H          -0.5600    0.9995   -0.0770 H       1  LIG1        0.1042
      7 C           2.3840    0.6235    0.0092 C.1     1  LIG1       -0.0662
      8 C           3.1139   -0.3306    0.0245 C.1     1  LIG1       -0.1138
      9 H           3.7576   -1.1795    0.0381 H       1  LIG1        0.1232
     10 C           3.3745    3.6602    0.0656 C.3     1  LIG1       -0.0348
     11 H           3.5187    4.3087    0.9291 H       1  LIG1        0.0279
     12 H           3.6084    4.2285   -0.8344 H       1  LIG1        0.0279
     13 H           4.0479    2.8074    0.1378 H       1  LIG1        0.0279
     14 C           0.5391    5.2970   -0.0110 C.ar    1  LIG1        0.1855
     15 C          -0.6027    6.0481   -0.0160 C.ar    1  LIG1        0.0763
     16 C          -0.1718    7.4318   -0.0124 C.ar    1  LIG1        0.0034
     17 C           1.1784    7.3839   -0.0049 C.ar    1  LIG1        0.0968
     18 O           1.6181    6.1007   -0.0042 O.2     1  LIG1       -0.4583
     19 H           1.9355    8.1484   -0.0001 H       1  LIG1        0.1032
     20 C          -1.9608    5.5999   -0.0227 C.1     1  LIG1       -0.0655
     21 C          -3.1150    5.2658   -0.0280 C.1     1  LIG1       -0.1138
     22 H          -4.1352    4.9594   -0.0324 H       1  LIG1        0.1232
     23 C          -1.0772    8.6330   -0.0139 C.3     1  LIG1       -0.0355
     24 H          -1.7041    8.6279    0.8781 H       1  LIG1        0.0279
     25 H          -1.7268    8.6082   -0.8892 H       1  LIG1        0.0279
     26 H          -0.4888    9.5493   -0.0319 H       1  LIG1        0.0279
@<TRIPOS>BOND
     1    25    23    1
     2    12    10    1
     3     6     1    1
     4     5     1   ar
     5     5     4   ar
     6     1     2   ar
     7    22    21    1
     8    26    23    1
     9    21    20    3
    10    20    15    1
    11    15    16   ar
    12    15    14   ar
    13    23    16    1
    14    23    24    1
    15     4    14    1
    16     4     3   ar
    17    16    17   ar
    18    14    18   ar
    19     2     7    1
    20     2     3   ar
    21    17    18   ar
    22    17    19    1
    23     7     8    3
    24     3    10    1
    25     8     9    1
    26    10    13    1
    27    10    11    1
