@<TRIPOS>MOLECULE
mol_data/opt/m06hf/geoms/mol2/12ei6ef13ea-4ee.out
 50 53 0 0 0
SMALL
GASTEIGER

@<TRIPOS>ATOM
      1 C           0.0764    1.7173   -0.4024 C.ar    1  LIG1        0.1082
      2 C           1.3595    1.6727    0.0483 C.ar    1  LIG1        0.0658
      3 C           1.7764    3.0472    0.2197 C.ar    1  LIG1        0.0108
      4 C           0.6980    3.7901   -0.1484 C.ar    1  LIG1        0.1417
      5 O          -0.3276    2.9865   -0.5243 O.2     1  LIG1       -0.4613
      6 H          -0.6275    0.9477   -0.6643 H       1  LIG1        0.1042
      7 C           2.1488    0.5077    0.3171 C.1     1  LIG1       -0.0662
      8 C           2.8307   -0.4533    0.5517 C.1     1  LIG1       -0.1138
      9 H           3.4331   -1.3070    0.7592 H       1  LIG1        0.1232
     10 C           3.1173    3.4983    0.7331 C.3     1  LIG1       -0.0349
     11 H           3.0713    4.5360    1.0612 H       1  LIG1        0.0279
     12 H           3.8757    3.4018   -0.0459 H       1  LIG1        0.0279
     13 H           3.4109    2.8689    1.5733 H       1  LIG1        0.0279
     14 C          -0.6673    5.8777    0.2579 C.ar    1  LIG1        0.1248
     15 C           0.4978    5.2463   -0.2184 C.ar    1  LIG1        0.0548
     16 C           1.4821    6.0551   -0.7645 C.ar    1  LIG1       -0.0046
     17 C           1.3229    7.4397   -0.8264 C.ar    1  LIG1        0.1449
     18 C           0.1300    7.9811   -0.3158 C.ar    1  LIG1        0.1309
     19 N          -0.8198    7.1917    0.1931 N.ar    1  LIG1       -0.2325
     20 H           2.3824    5.6293   -1.1884 H       1  LIG1        0.0663
     21 C          -1.7459    5.1261    0.8662 C.1     1  LIG1       -0.0491
     22 C          -2.6382    4.5123    1.3841 C.1     1  LIG1       -0.1124
     23 H          -3.4304    3.9684    1.8447 H       1  LIG1        0.1232
     24 O           2.3080    8.1232   -1.4273 O.3     1  LIG1       -0.5045
     25 H           2.2563    9.0872   -1.3174 H       1  LIG1        0.2922
     26 C          -0.2583    9.4115   -0.3354 C.ar    1  LIG1        0.0846
     27 C           0.3820   10.6410   -0.4914 C.ar    1  LIG1        0.0521
     28 C          -0.6070   11.6558   -0.3720 C.ar    1  LIG1       -0.0203
     29 C          -1.8109   11.0258   -0.1430 C.ar    1  LIG1        0.0494
     30 N          -1.5692    9.6823   -0.1298 N.ar    1  LIG1       -0.3519
     31 H          -2.2151    8.9398    0.1120 H       1  LIG1        0.1660
     32 C           1.7795   10.8884   -0.6803 C.1     1  LIG1       -0.0675
     33 C           2.9551   11.0979   -0.8409 C.1     1  LIG1       -0.1138
     34 H           3.9949   11.2911   -0.9723 H       1  LIG1        0.1232
     35 H          -0.4427   12.7156   -0.4553 H       1  LIG1        0.0651
     36 C          -3.4520   12.7685    0.6544 C.ar    1  LIG1        0.0338
     37 C          -4.7712   13.2228    0.7651 C.ar    1  LIG1       -0.0445
     38 C          -3.1822   11.5502    0.0055 C.ar    1  LIG1        0.0149
     39 C          -5.8245   12.4814    0.2546 C.ar    1  LIG1       -0.0451
     40 H          -4.9537   14.1628    1.2668 H       1  LIG1        0.0630
     41 C          -4.2495   10.8169   -0.5162 C.ar    1  LIG1       -0.0360
     42 C          -5.5637   11.2677   -0.3890 C.ar    1  LIG1        0.0254
     43 H          -4.0627    9.8964   -1.0536 H       1  LIG1        0.0637
     44 H          -6.8435   12.8304    0.3449 H       1  LIG1        0.0630
     45 C          -2.4066   13.5743    1.2400 C.1     1  LIG1       -0.0690
     46 C          -1.5803   14.2831    1.7496 C.1     1  LIG1       -0.1139
     47 H          -0.8402   14.9006    2.2039 H       1  LIG1        0.1232
     48 C          -6.6477   10.4863   -0.9369 C.1     1  LIG1       -0.0696
     49 C          -7.5510    9.8359   -1.3901 C.1     1  LIG1       -0.1139
     50 H          -8.3505    9.2578   -1.7935 H       1  LIG1        0.1232
@<TRIPOS>BOND
     1    50    49    1
     2    24    25    1
     3    24    17    1
     4    49    48    3
     5    20    16    1
     6    43    41    1
     7    34    33    1
     8    48    42    1
     9    33    32    3
    10    17    16   ar
    11    17    18   ar
    12    16    15   ar
    13    32    27    1
    14     6     1    1
    15     5     1   ar
    16     5     4   ar
    17    41    42   ar
    18    41    38   ar
    19    27    28   ar
    20    27    26   ar
    21    35    28    1
    22     1     2   ar
    23    42    39   ar
    24    28    29   ar
    25    26    18    1
    26    26    30   ar
    27    18    19   ar
    28    15     4    1
    29    15    14   ar
    30     4     3   ar
    31    29    30   ar
    32    29    38    1
    33    30    31    1
    34    12    10    1
    35    38    36   ar
    36     2     3   ar
    37     2     7    1
    38    19    14   ar
    39     3    10    1
    40    39    44    1
    41    39    37   ar
    42    14    21    1
    43     7     8    3
    44     8     9    1
    45    36    37   ar
    46    36    45    1
    47    10    11    1
    48    10    13    1
    49    37    40    1
    50    21    22    3
    51    45    46    3
    52    22    23    1
    53    46    47    1
