@<TRIPOS>MOLECULE
mol_data/opt/m06hf/geoms/mol2/12ei12ei-12ei.out
 38 40 0 0 0
SMALL
GASTEIGER

@<TRIPOS>ATOM
      1 C           4.3545    0.3593   -0.1620 C.ar    1  LIG1        0.1083
      2 C           4.0511   -0.9519    0.0364 C.ar    1  LIG1        0.0659
      3 C           2.6104   -1.0309    0.1389 C.ar    1  LIG1        0.0138
      4 C           2.1861    0.2546   -0.0141 C.ar    1  LIG1        0.1750
      5 O           3.2358    1.0927   -0.1947 O.2     1  LIG1       -0.4583
      6 H           5.2879    0.8771   -0.2912 H       1  LIG1        0.1042
      7 C           4.9673   -2.0493    0.1322 C.1     1  LIG1       -0.0662
      8 C           5.7194   -2.9825    0.2167 C.1     1  LIG1       -0.1138
      9 H           6.3897   -3.8070    0.2916 H       1  LIG1        0.1232
     10 C           1.8281   -2.2944    0.3718 C.3     1  LIG1       -0.0348
     11 H           0.7689   -2.0804    0.4878 H       1  LIG1        0.0279
     12 H           2.2066   -2.7914    1.2659 H       1  LIG1        0.0279
     13 H           1.9693   -2.9669   -0.4768 H       1  LIG1        0.0279
     14 C           0.8719    0.8705   -0.0119 C.ar    1  LIG1        0.1865
     15 C           0.4630    2.1763   -0.0358 C.ar    1  LIG1        0.0771
     16 C          -0.9809    2.1526   -0.0125 C.ar    1  LIG1        0.0145
     17 C          -1.3097    0.8332    0.0291 C.ar    1  LIG1        0.1760
     18 O          -0.1972    0.0575    0.0267 O.2     1  LIG1       -0.4470
     19 C           1.2661    3.3601   -0.0728 C.1     1  LIG1       -0.0655
     20 C           1.8931    4.3846   -0.1025 C.1     1  LIG1       -0.1138
     21 H           2.4562    5.2886   -0.1285 H       1  LIG1        0.1232
     22 C          -1.8725    3.3655   -0.0234 C.3     1  LIG1       -0.0348
     23 H          -1.3975    4.1500   -0.6117 H       1  LIG1        0.0279
     24 H          -2.0134    3.7328    0.9943 H       1  LIG1        0.0279
     25 H          -2.8438    3.1212   -0.4466 H       1  LIG1        0.0279
     26 C          -2.5866    0.1470    0.0717 C.ar    1  LIG1        0.1855
     27 C          -2.9503   -1.1609   -0.0913 C.ar    1  LIG1        0.0763
     28 C          -4.3896   -1.2016    0.0707 C.ar    1  LIG1        0.0034
     29 C          -4.7556    0.0763    0.3111 C.ar    1  LIG1        0.0968
     30 O          -3.6761    0.8975    0.3160 O.2     1  LIG1       -0.4583
     31 H          -5.7086    0.5406    0.4940 H       1  LIG1        0.1032
     32 C          -2.1238   -2.2889   -0.3926 C.1     1  LIG1       -0.0655
     33 C          -1.4845   -3.2728   -0.6562 C.1     1  LIG1       -0.1138
     34 H          -0.9124   -4.1399   -0.8941 H       1  LIG1        0.1232
     35 C          -5.2484   -2.4326   -0.0257 C.3     1  LIG1       -0.0355
     36 H          -6.2953   -2.1766    0.1315 H       1  LIG1        0.0279
     37 H          -4.9415   -3.1608    0.7258 H       1  LIG1        0.0279
     38 H          -5.1349   -2.8885   -1.0097 H       1  LIG1        0.0279
@<TRIPOS>BOND
     1    38    35    1
     2    34    33    1
     3    33    32    3
     4    23    22    1
     5    13    10    1
     6    25    22    1
     7    32    27    1
     8     6     1    1
     9     5     1   ar
    10     5     4   ar
    11     1     2   ar
    12    21    20    1
    13    20    19    3
    14    27    28   ar
    15    27    26   ar
    16    19    15    1
    17    15    16   ar
    18    15    14   ar
    19    35    28    1
    20    35    36    1
    21    35    37    1
    22    22    16    1
    23    22    24    1
    24     4    14    1
    25     4     3   ar
    26    16    17   ar
    27    14    18   ar
    28    18    17   ar
    29    17    26    1
    30     2     7    1
    31     2     3   ar
    32    28    29   ar
    33    26    30   ar
    34     7     8    3
    35     3    10    1
    36     8     9    1
    37    29    30   ar
    38    29    31    1
    39    10    11    1
    40    10    12    1
