@<TRIPOS>MOLECULE
mol_data/opt/m06hf/geoms/mol2/12ei12ei.out
 26 27 0 0 0
SMALL
GASTEIGER

@<TRIPOS>ATOM
      1 C           0.2693    1.8253   -0.6888 C.ar    1  LIG1        0.1083
      2 C           1.5483    1.8046   -0.2254 C.ar    1  LIG1        0.0659
      3 C           1.8618    3.1612    0.1693 C.ar    1  LIG1        0.0138
      4 C           0.7369    3.8707   -0.1123 C.ar    1  LIG1        0.1750
      5 O          -0.2280    3.0660   -0.6266 O.2     1  LIG1       -0.4583
      6 H          -0.3754    1.0546   -1.0727 H       1  LIG1        0.1042
      7 C           2.4133    0.6668   -0.1187 C.1     1  LIG1       -0.0662
      8 C           3.1531   -0.2749   -0.0173 C.1     1  LIG1       -0.1138
      9 H           3.8060   -1.1123    0.0715 H       1  LIG1        0.1232
     10 C           3.1482    3.6245    0.7944 C.3     1  LIG1       -0.0348
     11 H           2.9935    4.5652    1.3207 H       1  LIG1        0.0279
     12 H           3.9080    3.7780    0.0271 H       1  LIG1        0.0279
     13 H           3.4998    2.8646    1.4921 H       1  LIG1        0.0279
     14 C           0.4149    5.2832    0.0366 C.ar    1  LIG1        0.1855
     15 C           1.1506    6.4164   -0.1669 C.ar    1  LIG1        0.0763
     16 C           0.2881    7.5276    0.1760 C.ar    1  LIG1        0.0034
     17 C          -0.8840    6.9594    0.5389 C.ar    1  LIG1        0.0968
     18 O          -0.8174    5.6103    0.4623 O.2     1  LIG1       -0.4583
     19 H          -1.8232    7.3732    0.8630 H       1  LIG1        0.1032
     20 C           2.4836    6.5107   -0.6792 C.1     1  LIG1       -0.0655
     21 C           3.5978    6.6235   -1.1161 C.1     1  LIG1       -0.1138
     22 H           4.5822    6.7184   -1.5118 H       1  LIG1        0.1232
     23 C           0.6571    8.9842    0.1094 C.3     1  LIG1       -0.0355
     24 H          -0.1888    9.6027    0.4067 H       1  LIG1        0.0279
     25 H           0.9523    9.2482   -0.9065 H       1  LIG1        0.0279
     26 H           1.4978    9.1871    0.7736 H       1  LIG1        0.0279
@<TRIPOS>BOND
     1    22    21    1
     2    21    20    3
     3     6     1    1
     4    25    23    1
     5     1     5   ar
     6     1     2   ar
     7    20    15    1
     8     5     4   ar
     9     2     7    1
    10     2     3   ar
    11    15    14   ar
    12    15    16   ar
    13     7     8    3
    14     4    14    1
    15     4     3   ar
    16     8     9    1
    17    12    10    1
    18    14    18   ar
    19    23    16    1
    20    23    24    1
    21    23    26    1
    22     3    10    1
    23    16    17   ar
    24    18    17   ar
    25    17    19    1
    26    10    11    1
    27    10    13    1
